[TITLE]
;;Project Title/Notes

[OPTIONS]
;;Option             Value
FLOW_UNITS           LPS
INFILTRATION         GREEN_AMPT
FLOW_ROUTING         DYNWAVE
LINK_OFFSETS         DEPTH
MIN_SLOPE            0
ALLOW_PONDING        YES
SKIP_STEADY_STATE    NO

IGNORE_SNOWMELT      YES
START_DATE           07/06/2021
START_TIME           23:30:00
REPORT_START_DATE    07/06/2021
REPORT_START_TIME    23:30:00
END_DATE             07/07/2021
END_TIME             15:00:00
SWEEP_START          01/01
SWEEP_END            12/31
DRY_DAYS             0
REPORT_STEP          00:05:00
WET_STEP             00:01:00
DRY_STEP             01:00:00
ROUTING_STEP         0:00:01 
RULE_STEP            00:00:00

INERTIAL_DAMPING     PARTIAL
NORMAL_FLOW_LIMITED  BOTH
FORCE_MAIN_EQUATION  H-W
VARIABLE_STEP        0.75
LENGTHENING_STEP     0
MIN_SURFAREA         0.5027
MAX_TRIALS           8
HEAD_TOLERANCE       0.0015
SYS_FLOW_TOL         5
LAT_FLOW_TOL         5
MINIMUM_STEP         0.5
THREADS              1

[EVAPORATION]
;;Data Source    Parameters
;;-------------- ----------------
TEMPERATURE 
DRY_ONLY         YES

[TEMPERATURE]
;;Data Element     Values     
FILE               "../Data_input/climate.DAT"
WINDSPEED FILE    
SNOWMELT           34 0.5 0.6 0.0 50.0 0.0
ADC IMPERVIOUS     1.0 1.0 1.0 1.0 1.0 1.0 1.0 1.0 1.0 1.0
ADC PERVIOUS       1.0 1.0 1.0 1.0 1.0 1.0 1.0 1.0 1.0 1.0

[RAINGAGES]
;;Name           Format    Interval SCF      Source    
;;-------------- --------- ------ ------ ----------
STA01            VOLUME    0:01     1        TIMESERIES prec_mm         

[SUBCATCHMENTS]
;;Name           Rain Gage        Outlet           Area     %Imperv  Width    %Slope   CurbLen  SnowPack        
;;-------------- ---------------- ---------------- -------- -------- -------- -------- -------- ----------------
;33
s1               STA01            SMH4078080       0.00375  90       4.29     14.8625  2.50     sp_imp_plowable 
;30
s2               STA01            s1               0.00063  90       1.75     17.0711  2.50     sp_imp_nonplowable
;30
s3               STA01            s1               0.00125  90       2.47     12.1211  2.50     sp_imp_nonplowable
;30
s4               STA01            s1               0.00063  90       1.75     11.3807  2.50     sp_imp_nonplowable
;30
s5               STA01            SMH4075020       0.00313  90       3.91     0.1000   2.50     sp_imp_nonplowable
;34
s6               STA01            SMH4075020       0.00125  100      2.47     0.1000   2.50     sp_imp_plowable 
;34
s7               STA01            SMH4075020       0.00063  100      1.75     0.1000   2.50     sp_imp_plowable 
;34
s8               STA01            SMH4075020       0.00063  100      1.75     0.1000   2.50     sp_imp_plowable 
;34
s9               STA01            s5               0.00438  100      4.63     6.9406   2.50     sp_imp_plowable 
;34
s10              STA01            SMH4079260       0.02562  100      11.21    6.8898   2.50     sp_imp_plowable 
;30
s11              STA01            SMH4079260       0.00063  90       1.75     0.1000   2.50     sp_imp_nonplowable
;30
s12              STA01            s10              0.00063  90       1.75     0.1000   2.50     sp_imp_nonplowable
;30
s13              STA01            s10              0.00187  90       3.03     9.7229   2.50     sp_imp_nonplowable
;30
s14              STA01            s10              0.00125  90       2.47     3.5855   2.50     sp_imp_nonplowable
;30
s15              STA01            s10              0.00063  90       1.75     19.3137  2.50     sp_imp_nonplowable
;30
s16              STA01            s10              0.00063  90       1.75     19.3137  2.50     sp_imp_nonplowable
;30
s17              STA01            s10              0.00187  90       3.03     4.6652   2.50     sp_imp_nonplowable
;30
s18              STA01            s10              0.00187  90       3.03     4.0904   2.50     sp_imp_nonplowable
;30
s19              STA01            s10              0.00125  90       2.47     4.9274   2.50     sp_imp_nonplowable
;30
s20              STA01            s10              0.00313  90       3.91     1.7871   2.50     sp_imp_nonplowable
;30
s21              STA01            s10              0.04063  90       14.11    21.1114  2.50     sp_imp_nonplowable
;34
s22              STA01            SMH4079880       0.00375  100      4.29     4.0904   2.50     sp_imp_plowable 
;34
s23              STA01            SMH4081940       0.01312  100      8.02     5.4638   2.50     sp_imp_plowable 
;30
s24              STA01            SMH4081940       0.00063  90       1.75     0.1000   2.50     sp_imp_nonplowable
;30
s25              STA01            SMH4081940       0.00063  90       1.75     12.0711  2.50     sp_imp_nonplowable
;30
s26              STA01            SMH4081940       0.00063  90       1.75     12.0711  2.50     sp_imp_nonplowable
;34
s27              STA01            SMH4083760       0.04312  100      14.54    12.0911  2.50     sp_imp_plowable 
;30
s28              STA01            s27              0.00063  90       1.75     20.6066  2.50     sp_imp_nonplowable
;30
s29              STA01            s27              0.00125  90       2.47     12.0711  2.50     sp_imp_nonplowable
;30
s30              STA01            s27              0.00375  90       4.29     0.1000   2.50     sp_imp_nonplowable
;30
s31              STA01            s27              0.00063  90       1.75     0.1000   2.50     sp_imp_nonplowable
;30
s32              STA01            s27              0.00063  90       1.75     17.0711  2.50     sp_imp_nonplowable
;30
s33              STA01            s27              0.00187  90       3.03     19.8502  2.50     sp_imp_nonplowable
;30
s34              STA01            s27              0.00063  90       1.75     19.5098  2.50     sp_imp_nonplowable
;30
s35              STA01            s27              0.00438  90       4.63     9.7311   2.50     sp_imp_nonplowable
;30
s36              STA01            s27              0.00063  90       1.75     24.1421  2.50     sp_imp_nonplowable
;30
s37              STA01            s27              0.00063  90       1.75     16.0948  2.50     sp_imp_nonplowable
;30
s38              STA01            s27              0.00063  90       1.75     13.7955  2.50     sp_imp_nonplowable
;30
s39              STA01            s27              0.02375  90       10.79    0.7327   2.50     sp_imp_nonplowable
;30
s40              STA01            s27              0.00063  90       1.75     32.6777  2.50     sp_imp_nonplowable
;30
s41              STA01            s27              0.00187  90       3.03     14.9162  2.50     sp_imp_nonplowable
;30
s42              STA01            s27              0.00562  90       5.25     9.7379   2.50     sp_imp_nonplowable
;30
s43              STA01            s27              0.00063  90       1.75     12.0711  2.50     sp_imp_nonplowable
;30
s44              STA01            s27              0.00125  90       2.47     1.8178   2.50     sp_imp_nonplowable
;30
s45              STA01            s27              0.00063  90       1.75     8.5355   2.50     sp_imp_nonplowable
;30
s46              STA01            s27              0.00063  90       1.75     0.1000   2.50     sp_imp_nonplowable
;30
s47              STA01            s27              0.00063  90       1.75     0.1000   2.50     sp_imp_nonplowable
;36
s48              STA01            s39              0.01188  90       7.63     0.2808   2.50     sp_imp_plowable 
;36
s49              STA01            s39              0.00250  90       3.50     0.1000   2.50     sp_imp_plowable 
;36
s50              STA01            s39              0.00250  90       3.50     0.9589   2.50     sp_imp_plowable 
;36
s51              STA01            s39              0.00125  90       2.47     0.1000   2.50     sp_imp_plowable 
;30
s52              STA01            s48              0.00125  90       2.47     0.1000   2.50     sp_imp_nonplowable
;30
s53              STA01            s48              0.00313  90       3.91     0.1000   2.50     sp_imp_nonplowable
;30
s54              STA01            s48              0.00125  90       2.47     0.1000   2.50     sp_imp_nonplowable
;30
s55              STA01            s48              0.00562  90       5.25     0.1000   2.50     sp_imp_nonplowable
;30
s56              STA01            s49              0.00187  90       3.03     0.1000   2.50     sp_imp_nonplowable
;36
s57              STA01            s53              0.00063  90       1.75     0.1000   2.50     sp_imp_plowable 
;30
s58              STA01            s48              0.00125  90       2.47     13.1858  2.50     sp_imp_nonplowable
;30
s59              STA01            s48              0.00063  90       1.75     0.1000   2.50     sp_imp_nonplowable
;30
s60              STA01            s57              0.00313  90       3.91     15.5433  2.50     sp_imp_nonplowable
;30
s61              STA01            s57              0.00063  90       1.75     0.1000   2.50     sp_imp_nonplowable
;35
s62              STA01            s58              0.00063  100      1.75     20.6066  2.50     sp_imp_plowable 
;35
s63              STA01            s60              0.00063  100      1.75     32.6777  2.50     sp_imp_plowable 
;35
s64              STA01            s60              0.00937  100      6.78     42.0145  2.50     sp_imp_plowable 
;60
s65              STA01            s64              0.00250  10       3.50     33.2204  2.50     sp_imp_plowable 
;60
s66              STA01            s64              0.00063  10       1.75     44.7487  2.50     sp_imp_plowable 
;34
s67              STA01            s65              0.00063  100      1.75     0.1000   2.50     sp_imp_plowable 
;34
s68              STA01            SMH4083761       0.01188  100      7.63     12.3023  2.50     sp_imp_plowable 
;30
s69              STA01            s68              0.00625  90       5.53     16.6134  2.50     sp_imp_nonplowable
;30
s70              STA01            s68              0.00187  90       3.03     20.6066  2.50     sp_imp_nonplowable
;30
s71              STA01            s68              0.00937  90       6.78     12.8413  2.50     sp_imp_nonplowable
;30
s72              STA01            s68              0.00438  90       4.63     3.9968   2.50     sp_imp_nonplowable
;30
s73              STA01            s68              0.00125  90       2.47     4.3178   2.50     sp_imp_nonplowable
;30
s74              STA01            s68              0.00063  90       1.75     12.0711  2.50     sp_imp_nonplowable
;34
s75              STA01            s69              0.00375  100      4.29     7.9146   2.50     sp_imp_plowable 
;34
s76              STA01            s69              0.00187  100      3.03     21.7851  2.50     sp_imp_plowable 
;34
s77              STA01            s72              0.00063  100      1.75     20.6066  2.50     sp_imp_plowable 
;30
s78              STA01            s76              0.00063  90       1.75     32.1895  2.50     sp_imp_nonplowable
;30
s79              STA01            s76              0.00125  90       2.47     11.8252  2.50     sp_imp_nonplowable
;30
s80              STA01            s76              0.00063  90       1.75     20.6066  2.50     sp_imp_nonplowable
;30
s81              STA01            s76              0.00187  90       3.03     7.5926   2.50     sp_imp_nonplowable
;36
s82              STA01            s72              0.00125  90       2.47     12.0711  2.50     sp_imp_plowable 
;34
s83              STA01            s72              0.00063  100      1.75     12.0711  2.50     sp_imp_plowable 
;30
s84              STA01            s75              0.00063  90       1.75     32.1895  2.50     sp_imp_nonplowable
;30
s85              STA01            s75              0.00125  90       2.47     19.3637  2.50     sp_imp_nonplowable
;34
s86              STA01            SMH4083762       0.02063  100      10.05    14.0866  2.50     sp_imp_plowable 
;36
s87              STA01            s86              0.00063  90       1.75     36.2132  2.50     sp_imp_plowable 
;36
s88              STA01            s86              0.00125  90       2.47     14.5711  2.50     sp_imp_plowable 
;36
s89              STA01            s86              0.00375  90       4.29     5.4796   2.50     sp_imp_plowable 
;36
s90              STA01            s86              0.00625  90       5.53     15.6417  2.50     sp_imp_plowable 
;36
s91              STA01            s86              0.00063  90       1.75     44.7487  2.50     sp_imp_plowable 
;30
s92              STA01            s86              0.00438  90       4.63     10.0793  2.50     sp_imp_nonplowable
;30
s93              STA01            s86              0.00937  90       6.78     0.6366   2.50     sp_imp_nonplowable
;30
s94              STA01            s86              0.00438  90       4.63     9.1960   2.50     sp_imp_nonplowable
;34
s95              STA01            SMH4082500       0.01375  100      8.21     8.4618   2.50     sp_imp_plowable 
;30
s96              STA01            SMH4082500       0.00063  90       1.75     24.1421  2.50     sp_imp_nonplowable
;33
s97              STA01            s95              0.00125  90       2.47     0.1000   2.50     sp_imp_plowable 
;33
s98              STA01            s95              0.00187  90       3.03     0.1000   2.50     sp_imp_plowable 
;33
s99              STA01            s95              0.00063  90       1.75     3.5355   2.50     sp_imp_plowable 
;33
s100             STA01            s95              0.01312  90       8.02     7.4670   2.50     sp_imp_plowable 
;33
s101             STA01            s95              0.00063  90       1.75     20.6066  2.50     sp_imp_plowable 
;33
s102             STA01            s95              0.00125  90       2.47     6.0855   2.50     sp_imp_plowable 
;33
s103             STA01            s95              0.00187  90       3.03     4.0904   2.50     sp_imp_plowable 
;33
s104             STA01            s95              0.00125  90       2.47     6.0855   2.50     sp_imp_plowable 
;30
s105             STA01            SMH4097740       0.01125  90       7.42     0.2909   2.50     sp_imp_nonplowable
;34
s106             STA01            SMH4097740       0.00063  100      1.75     0.1000   2.50     sp_imp_plowable 
;34
s107             STA01            SMH4097740       0.00063  100      1.75     8.5355   2.50     sp_imp_plowable 
;34
s108             STA01            SMH4097740       0.00562  100      5.25     8.2545   2.50     sp_imp_plowable 
;34
s109             STA01            SMH4097740       0.00063  100      1.75     8.5355   2.50     sp_imp_plowable 
;34
s110             STA01            SMH4097740       0.00187  100      3.03     0.1000   2.50     sp_imp_plowable 
;34
s111             STA01            SMH4097741       0.00313  100      3.91     6.5755   2.50     sp_imp_plowable 
;30
s112             STA01            s111             0.00063  90       1.75     12.0711  2.50     sp_imp_nonplowable
;30
s113             STA01            s111             0.00187  90       3.03     4.0904   2.50     sp_imp_nonplowable
;34
s114             STA01            SMH4012812       0.00750  100      6.06     79.0216  2.50     sp_imp_plowable 
;35
s115             STA01            s114             0.00688  100      5.80     22.3052  2.50     sp_imp_plowable 
;35
s116             STA01            s114             0.00250  100      3.50     30.5688  2.50     sp_imp_plowable 
;35
s117             STA01            s114             0.00375  100      4.29     44.6679  2.50     sp_imp_plowable 
;35
s118             STA01            s114             0.00063  100      1.75     130.7107 2.50     sp_imp_plowable 
;34
s119             STA01            SMH4012813       0.01438  100      8.39     41.4460  2.50     sp_imp_plowable 
;35
s120             STA01            s119             0.00438  100      4.63     41.3865  2.50     sp_imp_plowable 
;35
s121             STA01            s119             0.00063  100      1.75     24.1421  2.50     sp_imp_plowable 
;35
s122             STA01            s119             0.00562  100      5.25     44.9115  2.50     sp_imp_plowable 
;35
s123             STA01            s119             0.00875  100      6.55     58.1004  2.50     sp_imp_plowable 
;35
s124             STA01            s119             0.00063  100      1.75     37.6777  2.50     sp_imp_plowable 
;35
s125             STA01            s119             0.00063  100      1.75     56.8198  2.50     sp_imp_plowable 
;34
s126             STA01            SMH4012814       0.01875  100      9.59     24.6115  2.50     sp_imp_plowable 
;30
s127             STA01            SMH4012814       0.00063  90       1.75     0.1000   2.50     sp_imp_nonplowable
;30
s128             STA01            SMH4012814       0.00063  90       1.75     3.5355   2.50     sp_imp_nonplowable
;30
s129             STA01            SMH4012814       0.00063  90       1.75     8.5355   2.50     sp_imp_nonplowable
;34
s130             STA01            SMH4012815       0.01937  100      9.74     22.6593  2.50     sp_imp_plowable 
;35
s131             STA01            s130             0.00313  100      3.91     47.8701  2.50     sp_imp_plowable 
;35
s132             STA01            s130             0.02625  100      11.34    46.2759  2.50     sp_imp_plowable 
;35
s133             STA01            s130             0.00125  100      2.47     89.4975  2.50     sp_imp_plowable 
;34
s134             STA01            s131             0.00063  100      1.75     48.2843  2.50     sp_imp_plowable 
;35
s135             STA01            s130             0.00063  100      1.75     36.2132  2.50     sp_imp_plowable 
;35
s136             STA01            s130             0.00063  100      1.75     29.1421  2.50     sp_imp_plowable 
;35
s137             STA01            s134             0.00313  100      3.91     63.3553  2.50     sp_imp_plowable 
;34
s138             STA01            SMH4012816       0.00937  100      6.78     15.5386  2.50     sp_imp_plowable 
;35
s139             STA01            SMH4012818       0.00375  100      4.29     10.0926  2.50     sp_imp_plowable 
;34
s140             STA01            SMH4012818       0.00063  100      1.75     25.6066  2.50     sp_imp_plowable 
;34
s141             STA01            SMH4012818       0.00063  100      1.75     12.0711  2.50     sp_imp_plowable 
;34
s142             STA01            SMH4012818       0.00125  100      2.47     14.5711  2.50     sp_imp_plowable 
;35
s143             STA01            s142             0.00063  100      1.75     17.0711  2.50     sp_imp_plowable 
;35
s144             STA01            s142             0.00063  100      1.75     17.0711  2.50     sp_imp_plowable 
;35
s145             STA01            s142             0.00438  100      4.63     15.2241  2.50     sp_imp_plowable 
;34
s146             STA01            SMH4012819       0.01188  100      7.63     31.5025  2.50     sp_imp_plowable 
;35
s147             STA01            s146             0.00187  100      3.03     28.6540  2.50     sp_imp_plowable 
;35
s148             STA01            s146             0.00187  100      3.03     24.1421  2.50     sp_imp_plowable 
;34
s149             STA01            s147             0.00063  100      1.75     8.5355   2.50     sp_imp_plowable 
;34
s150             STA01            s147             0.00063  100      1.75     3.5355   2.50     sp_imp_plowable 
;34
s151             STA01            SMH4012820       0.00562  100      5.25     94.6323  2.50     sp_imp_plowable 
;34
s152             STA01            SMH4023730       0.02063  100      10.05    38.7501  2.50     sp_imp_plowable 
;34
s153             STA01            SMH4023731       0.00937  100      6.78     83.9045  2.50     sp_imp_plowable 
;34
s154             STA01            SMH4023735       0.01000  100      7.00     0.1000   2.50     sp_imp_plowable 
;34
s155             STA01            SMH4029515       0.00688  100      5.80     14.5503  2.50     sp_imp_plowable 
;33
s156             STA01            SMH4029515       0.00063  90       1.75     12.0711  2.50     sp_imp_plowable 
;33
s157             STA01            s155             0.00187  90       3.03     13.7377  2.50     sp_imp_plowable 
;33
s158             STA01            s155             0.00250  90       3.50     6.1105   2.50     sp_imp_plowable 
;33
s159             STA01            s155             0.00125  90       2.47     4.3178   2.50     sp_imp_plowable 
;33
s160             STA01            s155             0.00063  90       1.75     8.5355   2.50     sp_imp_plowable 
;33
s161             STA01            s155             0.00125  90       2.47     2.0703   2.50     sp_imp_plowable 
;34
s162             STA01            SMH4029516       0.01312  100      8.02     13.6939  2.50     sp_imp_plowable 
;33
s163             STA01            s162             0.00063  90       1.75     7.0711   2.50     sp_imp_plowable 
;33
s164             STA01            s162             0.00063  90       1.75     0.1000   2.50     sp_imp_plowable 
;33
s165             STA01            s162             0.00187  90       3.03     8.0807   2.50     sp_imp_plowable 
;33
s166             STA01            s162             0.00562  90       5.25     8.4265   2.50     sp_imp_plowable 
;33
s167             STA01            s162             0.00063  90       1.75     0.1000   2.50     sp_imp_plowable 
;34
s168             STA01            SMH4029159       0.02875  100      11.87    10.4876  2.50     sp_imp_plowable 
;60
s169             STA01            s168             0.00313  10       3.91     7.2826   2.50     sp_imp_plowable 
;60
s170             STA01            s168             0.00375  10       4.29     10.3200  2.50     sp_imp_plowable 
;60
s171             STA01            s168             0.00063  10       1.75     32.6777  2.50     sp_imp_plowable 
;60
s172             STA01            s168             0.03500  10       13.10    5.1005   2.50     sp_imp_plowable 
;60
s173             STA01            s168             0.18438  10       30.06    6.5596   2.50     sp_imp_plowable 
;60
s174             STA01            s168             0.00688  10       5.80     9.1186   2.50     sp_imp_plowable 
;60
s175             STA01            s168             0.00125  10       2.47     4.3178   2.50     sp_imp_plowable 
;60
s176             STA01            s168             0.00125  10       2.47     4.3178   2.50     sp_imp_plowable 
;60
s177             STA01            s168             0.00063  10       1.75     3.5355   2.50     sp_imp_plowable 
;60
s178             STA01            s168             0.00063  10       1.75     12.0711  2.50     sp_imp_plowable 
;61
s179             STA01            s172             0.00125  10       2.47     12.0711  2.50     sp_imp_plowable 
;61
s180             STA01            s172             0.05312  10       16.13    8.3373   2.50     sp_imp_plowable 
;61
s181             STA01            s172             0.00313  10       3.91     9.6769   2.50     sp_imp_plowable 
;61
s182             STA01            s173             0.00125  10       2.47     0.1000   2.50     sp_imp_plowable 
;61
s183             STA01            s173             0.00250  10       3.50     0.1000   2.50     sp_imp_plowable 
;61
s184             STA01            s173             0.00125  10       2.47     12.0711  2.50     sp_imp_plowable 
;61
s185             STA01            s173             0.00187  10       3.03     16.0948  2.50     sp_imp_plowable 
;61
s186             STA01            s173             0.00063  10       1.75     12.0711  2.50     sp_imp_plowable 
;61
s187             STA01            s172             0.00063  10       1.75     12.0711  2.50     sp_imp_plowable 
;61
s188             STA01            s173             0.01500  10       8.57     6.7316   2.50     sp_imp_plowable 
;61
s189             STA01            s173             0.00625  10       5.53     6.9391   2.50     sp_imp_plowable 
;61
s190             STA01            s173             0.00625  10       5.53     7.2926   2.50     sp_imp_plowable 
;61
s191             STA01            s173             0.00625  10       5.53     7.2926   2.50     sp_imp_plowable 
;61
s192             STA01            s173             0.00625  10       5.53     7.2926   2.50     sp_imp_plowable 
;61
s193             STA01            s173             0.00562  10       5.25     8.0918   2.50     sp_imp_plowable 
;61
s194             STA01            s173             0.00562  10       5.25     7.6990   2.50     sp_imp_plowable 
;61
s195             STA01            s173             0.03875  10       13.78    3.1037   2.50     sp_imp_plowable 
;61
s196             STA01            s173             0.00063  10       1.75     20.6066  2.50     sp_imp_plowable 
;61
s197             STA01            s173             0.00063  10       1.75     20.6066  2.50     sp_imp_plowable 
;61
s198             STA01            s173             0.00313  10       3.91     12.0911  2.50     sp_imp_plowable 
;61
s199             STA01            s173             0.00313  10       3.91     14.0711  2.50     sp_imp_plowable 
;60
s200             STA01            s182             0.00063  10       1.75     0.1000   2.50     sp_imp_plowable 
;60
s201             STA01            s183             0.08750  10       20.71    0.1245   2.50     sp_imp_plowable 
;61
s202             STA01            s173             0.00063  10       1.75     17.0711  2.50     sp_imp_plowable 
;61
s203             STA01            s173             0.00187  10       3.03     17.7614  2.50     sp_imp_plowable 
;60
s204             STA01            s183             0.00063  10       1.75     0.1000   2.50     sp_imp_plowable 
;61
s205             STA01            s173             0.00313  10       3.91     11.6569  2.50     sp_imp_plowable 
;61
s206             STA01            s173             0.00187  10       3.03     8.1140   2.50     sp_imp_plowable 
;61
s207             STA01            s173             0.00063  10       1.75     8.5355   2.50     sp_imp_plowable 
;60
s208             STA01            s180             0.01625  10       8.92     0.1000   2.50     sp_imp_plowable 
;60
s209             STA01            s195             0.01312  10       8.02     0.1000   2.50     sp_imp_plowable 
;60
s210             STA01            s195             0.00250  10       3.50     0.1000   2.50     sp_imp_plowable 
;60
s211             STA01            s203             0.00063  10       1.75     3.5355   2.50     sp_imp_plowable 
;60
s212             STA01            s203             0.00063  10       1.75     8.5355   2.50     sp_imp_plowable 
;60
s213             STA01            s198             0.00063  10       1.75     12.0711  2.50     sp_imp_plowable 
;60
s214             STA01            s198             0.07312  10       18.93    1.0023   2.50     sp_imp_plowable 
;60
s215             STA01            s206             0.00250  10       3.50     0.1000   2.50     sp_imp_plowable 
;60
s216             STA01            s206             0.00250  10       3.50     0.1000   2.50     sp_imp_plowable 
;60
s217             STA01            s180             0.00688  10       5.80     0.1000   2.50     sp_imp_plowable 
;60
s218             STA01            s195             0.00937  10       6.78     0.1000   2.50     sp_imp_plowable 
;60
s219             STA01            s180             0.00562  10       5.25     0.1000   2.50     sp_imp_plowable 
;60
s220             STA01            s180             0.00125  10       2.47     0.1000   2.50     sp_imp_plowable 
;60
s221             STA01            s180             0.00375  10       4.29     0.1000   2.50     sp_imp_plowable 
;60
s222             STA01            s180             0.00063  10       1.75     0.1000   2.50     sp_imp_plowable 
;60
s223             STA01            s180             0.00125  10       2.47     0.1000   2.50     sp_imp_plowable 
;60
s224             STA01            s180             0.00313  10       3.91     0.1000   2.50     sp_imp_plowable 
;60
s225             STA01            s180             0.00125  10       2.47     0.1000   2.50     sp_imp_plowable 
;60
s226             STA01            s180             0.00063  10       1.75     0.1000   2.50     sp_imp_plowable 
;60
s227             STA01            s180             0.00187  10       3.03     0.1000   2.50     sp_imp_plowable 
;61
s228             STA01            s222             0.00375  10       4.29     0.1000   2.50     sp_imp_plowable 
;60
s229             STA01            s180             0.00063  10       1.75     0.1000   2.50     sp_imp_plowable 
;61
s230             STA01            s221             0.00187  10       3.03     0.1000   2.50     sp_imp_plowable 
;60
s231             STA01            s195             0.00187  10       3.03     0.1000   2.50     sp_imp_plowable 
;61
s232             STA01            s231             0.00125  10       2.47     0.1000   2.50     sp_imp_plowable 
;61
s233             STA01            s231             0.00125  10       2.47     0.1000   2.50     sp_imp_plowable 
;61
s234             STA01            s231             0.00187  10       3.03     0.1000   2.50     sp_imp_plowable 
;61
s235             STA01            s218             0.00063  10       1.75     0.1000   2.50     sp_imp_plowable 
;34