[TITLE]
;;Project Title/Notes
;;Generated with the GisToSWMM5 program

[OPTIONS]
;Option Value
FLOW_UNITS   LPS
INFILTRATION   GREEN_AMPT
FLOW_ROUTING   DYNWAVE
LINK_OFFSETS   DEPTH
MIN_SLOPE   0
ALLOW_PONDING   YES
SKIP_STEADY_STATE   NO
START_DATE   7/6/2021
START_TIME   23:30
REPORT_START_DATE   7/6/2021
REPORT_START_TIME   23:30
END_DATE   7/7/2021
END_TIME   2:30
SWEEP_START   1/1
SWEEP_END   12/31
DRY_DAYS   0
REPORT_STEP   0:02:00
WET_STEP   0:01:00
DRY_STEP   1:00:00
ROUTING_STEP   0:00:01
INERTIAL_DAMPING   PARTIAL
NORMAL_FLOW_LIMITED   BOTH
FORCE_MAIN_EQUATION   H-W
VARIABLE_STEP   0.75
LENGTHENING_STEP   0
MIN_SURFAREA   0.5027
MAX_TRIALS   8
HEAD_TOLERANCE   0.0015
SYS_FLOW_TOL   5
LAT_FLOW_TOL   5
MINIMUM_STEP   0.5
THREADS   1
IGNORE_SNOWMELT   YES

[EVAPORATION]
;;Evap Data      Parameters
;;-------------- ----------------
TEMPERATURE    
DRY_ONLY   YES

[TEMPERATURE]
;;Temp/Wind/Snow   Source/Data
FILE   ../Data_input/climate.DAT                                    
WINDSPEED   FILE                                    

[RAINGAGES]
;;Gage           Format    Interval SCF      Source
;;-------------- --------- ------ ------ ----------
STA01   VOLUME   0:01   1   FILE   prec_mm1.DAT   STA01   MM

[SUBCATCHMENTS]
;;Subcatchment   Rain Gage        Outlet           Area     %Imperv  Width    %Slope   CurbLen  Snow Pack       
;;-------------- ---------------- ---------------- -------- -------- -------- -------- -------- ----------------
;33
s1   STA01   SMH4078080   0.00375   #a4 #   4.29   14.8625   2.50   sp_imp_plowable   
;30
s2   STA01   s1   0.00063   #a1 #   1.75   17.0711   2.50   sp_imp_nonplowable   
;30
s3   STA01   s1   0.00125   #a1 #   2.47   12.1211   2.50   sp_imp_nonplowable   
;30
s4   STA01   s1   0.00063   #a1 #   1.75   11.3807   2.50   sp_imp_nonplowable   
;30
s5   STA01   SMH4075020   0.00250   #a1 #   3.50   0.1000   2.50   sp_imp_nonplowable   
;34
s6   STA01   SMH4075020   0.00125   #a6 #   2.47   0.1000   2.50   sp_imp_plowable   
;34
s7   STA01   SMH4075020   0.00063   #a6 #   1.75   0.1000   2.50   sp_imp_plowable   
;34
s8   STA01   SMH4075020   0.00063   #a6 #   1.75   0.1000   2.50   sp_imp_plowable   
;34
s9   STA01   SMH4079260   0.01875   #a6 #   9.59   5.8756   2.50   sp_imp_plowable   
;30
s10   STA01   s9   0.00063   #a1 #   1.75   19.3137   2.50   sp_imp_nonplowable   
;30
s11   STA01   s9   0.00187   #a1 #   3.03   4.6652   2.50   sp_imp_nonplowable   
;30
s12   STA01   s9   0.00187   #a1 #   3.03   4.0904   2.50   sp_imp_nonplowable   
;30
s13   STA01   s9   0.00125   #a1 #   2.47   4.9274   2.50   sp_imp_nonplowable   
;30
s14   STA01   s9   0.00313   #a1 #   3.91   1.7871   2.50   sp_imp_nonplowable   
;30
s15   STA01   s9   0.04063   #a1 #   14.11   21.1114   2.50   sp_imp_nonplowable   
;34
s16   STA01   SMH4079880   0.00438   #a6 #   4.63   0.1000   2.50   sp_imp_plowable   
;34
s17   STA01   SMH4081940   0.01375   #a6 #   8.21   0.1000   2.50   sp_imp_plowable   
;30
s18   STA01   SMH4081940   0.00063   #a1 #   1.75   0.1000   2.50   sp_imp_nonplowable   
;30
s19   STA01   SMH4081940   0.00063   #a1 #   1.75   0.1000   2.50   sp_imp_nonplowable   
;30
s20   STA01   SMH4081940   0.00063   #a1 #   1.75   0.1000   2.50   sp_imp_nonplowable   
;34
s21   STA01   SMH4083760   0.04000   #a6 #   14.00   12.1234   2.50   sp_imp_plowable   
;30
s22   STA01   s21   0.00063   #a1 #   1.75   20.6066   2.50   sp_imp_nonplowable   
;30
s23   STA01   s21   0.00125   #a1 #   2.47   12.0711   2.50   sp_imp_nonplowable   
;30
s24   STA01   s21   0.00375   #a1 #   4.29   0.1000   2.50   sp_imp_nonplowable   
;30
s25   STA01   s21   0.00063   #a1 #   1.75   0.1000   2.50   sp_imp_nonplowable   
;30
s26   STA01   s21   0.00063   #a1 #   1.75   17.0711   2.50   sp_imp_nonplowable   
;30
s27   STA01   s21   0.00187   #a1 #   3.03   19.8502   2.50   sp_imp_nonplowable   
;30
s28   STA01   s21   0.00063   #a1 #   1.75   19.5098   2.50   sp_imp_nonplowable   
;30
s29   STA01   s21   0.00438   #a1 #   4.63   9.7311   2.50   sp_imp_nonplowable   
;30
s30   STA01   s21   0.00063   #a1 #   1.75   24.1421   2.50   sp_imp_nonplowable   
;30
s31   STA01   s21   0.00063   #a1 #   1.75   16.0948   2.50   sp_imp_nonplowable   
;30
s32   STA01   s21   0.00063   #a1 #   1.75   13.7955   2.50   sp_imp_nonplowable   
;30
s33   STA01   s21   0.00063   #a1 #   1.75   32.6777   2.50   sp_imp_nonplowable   
;30
s34   STA01   s21   0.00187   #a1 #   3.03   14.9162   2.50   sp_imp_nonplowable   
;30
s35   STA01   s21   0.00562   #a1 #   5.25   9.7379   2.50   sp_imp_nonplowable   
;30
s36   STA01   s21   0.00937   #a1 #   6.78   12.8413   2.50   sp_imp_nonplowable   
;30
s37   STA01   s21   0.00625   #a1 #   5.53   16.6134   2.50   sp_imp_nonplowable   
;30
s38   STA01   s21   0.00187   #a1 #   3.03   20.6066   2.50   sp_imp_nonplowable   
;30
s39   STA01   s21   0.00063   #a1 #   1.75   0.1000   2.50   sp_imp_nonplowable   
;34
s40   STA01   s37   0.00375   #a6 #   4.29   7.9146   2.50   sp_imp_plowable   
;34
s41   STA01   s37   0.00187   #a6 #   3.03   21.7851   2.50   sp_imp_plowable   
;30
s42   STA01   s41   0.00063   #a1 #   1.75   32.1895   2.50   sp_imp_nonplowable   
;30
s43   STA01   s41   0.00125   #a1 #   2.47   11.8252   2.50   sp_imp_nonplowable   
;30
s44   STA01   s41   0.00063   #a1 #   1.75   20.6066   2.50   sp_imp_nonplowable   
;30
s45   STA01   s41   0.00187   #a1 #   3.03   7.5926   2.50   sp_imp_nonplowable   
;30
s46   STA01   s40   0.00063   #a1 #   1.75   32.1895   2.50   sp_imp_nonplowable   
;30
s47   STA01   s40   0.00125   #a1 #   2.47   19.3637   2.50   sp_imp_nonplowable   
;34
s48   STA01   SMH4083761   0.01500   #a6 #   8.57   12.1720   2.50   sp_imp_plowable   
;30
s49   STA01   s48   0.00063   #a1 #   1.75   12.0711   2.50   sp_imp_nonplowable   
;30
s50   STA01   s48   0.02375   #a1 #   10.79   0.7327   2.50   sp_imp_nonplowable   
;30
s51   STA01   s48   0.00438   #a1 #   4.63   3.9968   2.50   sp_imp_nonplowable   
;30
s52   STA01   s48   0.00125   #a1 #   2.47   4.3178   2.50   sp_imp_nonplowable   
;30
s53   STA01   s48   0.00063   #a1 #   1.75   12.0711   2.50   sp_imp_nonplowable   
;30
s54   STA01   s48   0.00125   #a1 #   2.47   1.8178   2.50   sp_imp_nonplowable   
;30
s55   STA01   s48   0.00063   #a1 #   1.75   8.5355   2.50   sp_imp_nonplowable   
;30
s56   STA01   s48   0.00063   #a1 #   1.75   0.1000   2.50   sp_imp_nonplowable   
;34
s57   STA01   s51   0.00063   #a6 #   1.75   20.6066   2.50   sp_imp_plowable   
;36
s58   STA01   s51   0.00125   #a9 #   2.47   12.0711   2.50   sp_imp_plowable   
;34
s59   STA01   s51   0.00063   #a6 #   1.75   12.0711   2.50   sp_imp_plowable   
;36
s60   STA01   s50   0.01188   #a9 #   7.63   0.2808   2.50   sp_imp_plowable   
;36
s61   STA01   s50   0.00250   #a9 #   3.50   0.1000   2.50   sp_imp_plowable   
;36
s62   STA01   s50   0.00250   #a9 #   3.50   0.1000   2.50   sp_imp_plowable   
;36
s63   STA01   s50   0.00125   #a9 #   2.47   0.1000   2.50   sp_imp_plowable   
;30
s64   STA01   s60   0.00125   #a1 #   2.47   0.1000   2.50   sp_imp_nonplowable   
;30
s65   STA01   s60   0.00313   #a1 #   3.91   0.1000   2.50   sp_imp_nonplowable   
;30
s66   STA01   s60   0.00125   #a1 #   2.47   0.1000   2.50   sp_imp_nonplowable   
;30
s67   STA01   s60   0.00562   #a1 #   5.25   0.1000   2.50   sp_imp_nonplowable   
;30
s68   STA01   s61   0.00187   #a1 #   3.03   0.1000   2.50   sp_imp_nonplowable   
;36
s69   STA01   s65   0.00063   #a9 #   1.75   0.1000   2.50   sp_imp_plowable   
;30
s70   STA01   s60   0.00125   #a1 #   2.47   13.1858   2.50   sp_imp_nonplowable   
;30
s71   STA01   s60   0.00063   #a1 #   1.75   0.1000   2.50   sp_imp_nonplowable   
;30
s72   STA01   s69   0.00313   #a1 #   3.91   15.5433   2.50   sp_imp_nonplowable   
;30
s73   STA01   s69   0.00063   #a1 #   1.75   0.1000   2.50   sp_imp_nonplowable   
;35
s74   STA01   s70   0.00063   #a7 #   1.75   20.6066   2.50   sp_imp_plowable   
;35
s75   STA01   s72   0.00063   #a7 #   1.75   32.6777   2.50   sp_imp_plowable   
;35
s76   STA01   s72   0.00937   #a7 #   6.78   42.0145   2.50   sp_imp_plowable   
;60
s77   STA01   s76   0.00250   #a5 #   3.50   33.2204   2.50   sp_imp_plowable   
;60
s78   STA01   s76   0.00063   #a5 #   1.75   44.7487   2.50   sp_imp_plowable   
;34
s79   STA01   s77   0.00063   #a6 #   1.75   0.1000   2.50   sp_imp_plowable   
;34
s80   STA01   SMH4083762   0.01375   #a6 #   8.21   14.5817   2.50   sp_imp_plowable   
;36
s81   STA01   s80   0.00063   #a9 #   1.75   36.2132   2.50   sp_imp_plowable   
;36
s82   STA01   s80   0.00125   #a9 #   2.47   14.5711   2.50   sp_imp_plowable   
;34
s83   STA01   SMH4082500   0.01438   #a6 #   8.39   8.9262   2.50   sp_imp_plowable   
;30
s84   STA01   SMH4082500   0.00063   #a1 #   1.75   12.0711   2.50   sp_imp_nonplowable   
;30
s85   STA01   SMH4082500   0.00063   #a1 #   1.75   24.1421   2.50   sp_imp_nonplowable   
;33
s86   STA01   s83   0.00125   #a4 #   2.47   6.0855   2.50   sp_imp_plowable   
;33
s87   STA01   s83   0.00125   #a4 #   2.47   0.1000   2.50   sp_imp_plowable   
;33
s88   STA01   s83   0.00187   #a4 #   3.03   0.1000   2.50   sp_imp_plowable   
;33
s89   STA01   s83   0.00063   #a4 #   1.75   3.5355   2.50   sp_imp_plowable   
;33
s90   STA01   s83   0.01312   #a4 #   8.02   7.4670   2.50   sp_imp_plowable   
;33
s91   STA01   s83   0.00063   #a4 #   1.75   20.6066   2.50   sp_imp_plowable   
;33
s92   STA01   s83   0.00125   #a4 #   2.47   6.0855   2.50   sp_imp_plowable   
;33
s93   STA01   s83   0.00187   #a4 #   3.03   4.0904   2.50   sp_imp_plowable   
;34
s94   STA01   SMH4097740   0.00187   #a6 #   3.03   6.9022   2.50   sp_imp_plowable   
;30
s95   STA01   SMH4097740   0.01000   #a1 #   7.00   0.3147   2.50   sp_imp_nonplowable   
;30
s96   STA01   SMH4097740   0.00125   #a1 #   2.47   0.1000   2.50   sp_imp_nonplowable   
;34
s97   STA01   SMH4097741   0.00250   #a6 #   3.50   6.0605   2.50   sp_imp_plowable   
;30
s98   STA01   s97   0.00063   #a1 #   1.75   12.0711   2.50   sp_imp_nonplowable   
;34
s99   STA01   SMH4012812   0.00750   #a6 #   6.06   79.0216   2.50   sp_imp_plowable   
;35
s100   STA01   s99   0.00875   #a7 #   6.55   23.8137   2.50   sp_imp_plowable   
;35
s101   STA01   s99   0.00313   #a7 #   3.91   30.0682   2.50   sp_imp_plowable   
;35
s102   STA01   s99   0.00375   #a7 #   4.29   46.9477   2.50   sp_imp_plowable   
;35
s103   STA01   s99   0.00063   #a7 #   1.75   130.7107   2.50   sp_imp_plowable   
;34
s104   STA01   SMH4012813   0.01875   #a6 #   9.59   38.1442   2.50   sp_imp_plowable   
;35
s105   STA01   s104   0.00063   #a7 #   1.75   24.1421   2.50   sp_imp_plowable   
;35
s106   STA01   s104   0.00313   #a7 #   3.91   55.5269   2.50   sp_imp_plowable   
;35
s107   STA01   s104   0.00125   #a7 #   2.47   73.8909   2.50   sp_imp_plowable   
;35
s108   STA01   s104   0.00438   #a7 #   4.63   41.3865   2.50   sp_imp_plowable   
;35
s109   STA01   s104   0.00562   #a7 #   5.25   44.9115   2.50   sp_imp_plowable   
;35
s110   STA01   s104   0.00875   #a7 #   6.55   58.1004   2.50   sp_imp_plowable   
;35
s111   STA01   s104   0.00187   #a7 #   3.03   34.5465   2.50   sp_imp_plowable   
;35
s112   STA01   s104   0.00063   #a7 #   1.75   82.4264   2.50   sp_imp_plowable   
;35
s113   STA01   s104   0.00313   #a7 #   3.91   34.3848   2.50   sp_imp_plowable   
;35
s114   STA01   s104   0.00063   #a7 #   1.75   37.6777   2.50   sp_imp_plowable   
;35
s115   STA01   s104   0.00063   #a7 #   1.75   56.8198   2.50   sp_imp_plowable   
;30
s116   STA01   SMH4012814   0.00375   #a1 #   4.29   0.1000   2.50   sp_imp_nonplowable   
;34
s117   STA01   SMH4012814   0.00063   #a6 #   1.75   0.1000   2.50   sp_imp_plowable   
;34
s118   STA01   SMH4012814   0.01063   #a6 #   7.22   29.3883   2.50   sp_imp_plowable   
;34
s119   STA01   SMH4012814   0.00750   #a6 #   6.06   2.2256   2.50   sp_imp_plowable   
;34
s120   STA01   SMH4012815   0.01937   #a6 #   9.74   14.8093   2.50   sp_imp_plowable   
;35
s121   STA01   s120   0.00313   #a7 #   3.91   45.4558   2.50   sp_imp_plowable   
;35
s122   STA01   s120   0.02625   #a7 #   11.34   45.9885   2.50   sp_imp_plowable   
;35
s123   STA01   s120   0.00125   #a7 #   2.47   89.4975   2.50   sp_imp_plowable   
;34
s124   STA01   s121   0.00063   #a6 #   1.75   48.2843   2.50   sp_imp_plowable   
;35
s125   STA01   s120   0.00063   #a7 #   1.75   36.2132   2.50   sp_imp_plowable   
;35
s126   STA01   s120   0.00063   #a7 #   1.75   29.1421   2.50   sp_imp_plowable   
;35
s127   STA01   s124   0.00313   #a7 #   3.91   63.3553   2.50   sp_imp_plowable   
;34
s128   STA01   SMH4012816   0.00875   #a6 #   6.55   12.3517   2.50   sp_imp_plowable   
;35
s129   STA01   SMH4012818   0.00438   #a7 #   4.63   7.4457   2.50   sp_imp_plowable   
;34
s130   STA01   SMH4012818   0.00063   #a6 #   1.75   8.5355   2.50   sp_imp_plowable   
;34
s131   STA01   SMH4012818   0.00063   #a6 #   1.75   20.6066   2.50   sp_imp_plowable   
;34
s132   STA01   SMH4012818   0.00063   #a6 #   1.75   25.6066   2.50   sp_imp_plowable   
;34
s133   STA01   SMH4012819   0.00688   #a6 #   5.80   23.8389   2.50   sp_imp_plowable   
;34
s134   STA01   SMH4012820   0.00500   #a6 #   4.95   88.1716   2.50   sp_imp_plowable   
;35
s135   STA01   SMH4012820   0.00063   #a7 #   1.75   46.2132   2.50   sp_imp_plowable   
;35
s136   STA01   SMH4012820   0.00063   #a7 #   1.75   43.2843   2.50   sp_imp_plowable   
;35
s137   STA01   SMH4012820   0.00313   #a7 #   3.91   33.7990   2.50   sp_imp_plowable   
;34
s138   STA01   SMH4023730   0.01125   #a6 #   7.42   42.1859   2.50   sp_imp_plowable   
;34
s139   STA01   SMH4023731   0.01000   #a6 #   7.00   92.8372   2.50   sp_imp_plowable   
;60
s140   STA01   s139   0.00063   #a5 #   1.75   68.2843   2.50   sp_imp_plowable   
;60
s141   STA01   s139   0.00063   #a5 #   1.75   106.9117   2.50   sp_imp_plowable   
;34
s142   STA01   SMH4023735   0.02937   #a6 #   12.00   4.8575   2.50   sp_imp_plowable   
;35
s143   STA01   s142   0.00063   #a7 #   1.75   21.6569   2.50   sp_imp_plowable   
;35
s144   STA01   s142   0.00063   #a7 #   1.75   13.6569   2.50   sp_imp_plowable   
;35
s145   STA01   s142   0.00125   #a7 #   2.47   2.8784   2.50   sp_imp_plowable   
;34
s146   STA01   SMH4029515   0.00688   #a6 #   5.80   14.5503   2.50   sp_imp_plowable   
;33
s147   STA01   SMH4029515   0.00063   #a4 #   1.75   12.0711   2.50   sp_imp_plowable   
;33
s148   STA01   s146   0.00187   #a4 #   3.03   13.7377   2.50   sp_imp_plowable   
;33
s149   STA01   s146   0.00250   #a4 #   3.50   6.1105   2.50   sp_imp_plowable   
;33
s150   STA01   s146   0.00125   #a4 #   2.47   4.3178   2.50   sp_imp_plowable   
;33
s151   STA01   s146   0.00063   #a4 #   1.75   8.5355   2.50   sp_imp_plowable   
;33
s152   STA01   s146   0.00125   #a4 #   2.47   2.0703   2.50   sp_imp_plowable   
;34
s153   STA01   SMH4029516   0.00625   #a6 #   5.53   12.8395   2.50   sp_imp_plowable   
;33
s154   STA01   s153   0.00063   #a4 #   1.75   16.0948   2.50   sp_imp_plowable   
;34
s155   STA01   SMH4029159   0.02875   #a6 #   11.87   10.4876   2.50   sp_imp_plowable   
;60
s156   STA01   s155   0.00313   #a5 #   3.91   7.2826   2.50   sp_imp_plowable   
;60
s157   STA01   s155   0.00375   #a5 #   4.29   10.3200   2.50   sp_imp_plowable   
;60
s158   STA01   s155   0.00063   #a5 #   1.75   32.6777   2.50   sp_imp_plowable   
;60
s159   STA01   s155   0.03500   #a5 #   13.10   5.1005   2.50   sp_imp_plowable   
;60
s160   STA01   s155   0.18438   #a5 #   30.06   6.0062   2.50   sp_imp_plowable   
;60
s161   STA01   s155   0.00688   #a5 #   5.80   9.1186   2.50   sp_imp_plowable   
;60
s162   STA01   s155   0.00125   #a5 #   2.47   4.3178   2.50   sp_imp_plowable   
;60
s163   STA01   s155   0.00125   #a5 #   2.47   4.3178   2.50   sp_imp_plowable   
;60
s164   STA01   s155   0.00063   #a5 #   1.75   3.5355   2.50   sp_imp_plowable   
;60
s165   STA01   s155   0.00063   #a5 #   1.75   12.0711   2.50   sp_imp_plowable   
;61
s166   STA01   s159   0.00125   #a8 #   2.47   12.0711   2.50   sp_imp_plowable   
;61
s167   STA01   s159   0.05312   #a8 #   16.13   8.3373   2.50   sp_imp_plowable   
;61
s168   STA01   s159   0.00313   #a8 #   3.91   9.6769   2.50   sp_imp_plowable   
;61
s169   STA01   s160   0.00125   #a8 #   2.47   0.1000   2.50   sp_imp_plowable   
;61
s170   STA01   s160   0.00250   #a8 #   3.50   0.1000   2.50   sp_imp_plowable   
;61
s171   STA01   s160   0.00125   #a8 #   2.47   12.0711   2.50   sp_imp_plowable   
;61
s172   STA01   s160   0.00187   #a8 #   3.03   16.0948   2.50   sp_imp_plowable   
;61
s173   STA01   s160   0.00063   #a8 #   1.75   12.0711   2.50   sp_imp_plowable   
;61
s174   STA01   s159   0.00063   #a8 #   1.75   12.0711   2.50   sp_imp_plowable   
;61
s175   STA01   s160   0.01500   #a8 #   8.57   6.7316   2.50   sp_imp_plowable   
;61
s176   STA01   s160   0.00625   #a8 #   5.53   6.9391   2.50   sp_imp_plowable   
;61
s177   STA01   s160   0.00625   #a8 #   5.53   7.2926   2.50   sp_imp_plowable   
;61
s178   STA01   s160   0.00625   #a8 #   5.53   7.2926   2.50   sp_imp_plowable   
;61
s179   STA01   s160   0.00625   #a8 #   5.53   7.2926   2.50   sp_imp_plowable   
;61
s180   STA01   s160   0.00562   #a8 #   5.25   8.0918   2.50   sp_imp_plowable   
;61
s181   STA01   s160   0.00562   #a8 #   5.25   7.6990   2.50   sp_imp_plowable   
;61
s182   STA01   s160   0.03875   #a8 #   13.78   3.1037   2.50   sp_imp_plowable   
;61
s183   STA01   s160   0.00063   #a8 #   1.75   20.6066   2.50   sp_imp_plowable   
;61
s184   STA01   s160   0.00063   #a8 #   1.75   20.6066   2.50   sp_imp_plowable   
;61
s185   STA01   s160   0.00313   #a8 #   3.91   12.0911   2.50   sp_imp_plowable   
;61
s186   STA01   s160   0.00313   #a8 #   3.91   14.0711   2.50   sp_imp_plowable   
;60
s187   STA01   s169   0.00063   #a5 #   1.75   0.1000   2.50   sp_imp_plowable   
;60
s188   STA01   s170   0.08750   #a5 #   20.71   0.1245   2.50   sp_imp_plowable   
;61
s189   STA01   s160   0.00063   #a8 #   1.75   17.0711   2.50   sp_imp_plowable   
;61
s190   STA01   s160   0.00187   #a8 #   3.03   17.7614   2.50   sp_imp_plowable   
;60
s191   STA01   s170   0.00063   #a5 #   1.75   0.1000   2.50   sp_imp_plowable   
;61
s192   STA01   s160   0.00313   #a8 #   3.91   11.6569   2.50   sp_imp_plowable   
;61
s193   STA01   s160   0.00187   #a8 #   3.03   8.1140   2.50   sp_imp_plowable   
;61
s194   STA01   s160   0.00063   #a8 #   1.75   8.5355   2.50   sp_imp_plowable   
;60
s195   STA01   s167   0.01625   #a5 #   8.92   0.1000   2.50   sp_imp_plowable   
;60
s196   STA01   s182   0.01312   #a5 #   8.02   0.1000   2.50   sp_imp_plowable   
;60
s197   STA01   s182   0.00250   #a5 #   3.50   0.1000   2.50   sp_imp_plowable   
;60
s198   STA01   s190   0.00063   #a5 #   1.75   3.5355   2.50   sp_imp_plowable   
;60
s199   STA01   s190   0.00063   #a5 #   1.75   8.5355   2.50   sp_imp_plowable   
;60
s200   STA01   s185   0.00063   #a5 #   1.75   12.0711   2.50   sp_imp_plowable   
;60
s201   STA01   s185   0.07312   #a5 #   18.93   1.0023   2.50   sp_imp_plowable   
;60
s202   STA01   s193   0.00250   #a5 #   3.50   0.1000   2.50   sp_imp_plowable   
;60
s203   STA01   s193   0.00250   #a5 #   3.50   0.1000   2.50   sp_imp_plowable   
;60
s204   STA01   s167   0.00688   #a5 #   5.80   0.1000   2.50   sp_imp_plowable   
;60
s205   STA01   s182   0.00937   #a5 #   6.78   0.1000   2.50   sp_imp_plowable   
;60
s206   STA01   s167   0.00562   #a5 #   5.25   0.1000   2.50   sp_imp_plowable   
;60
s207   STA01   s167   0.00125   #a5 #   2.47   0.1000   2.50   sp_imp_plowable   
;60
s208   STA01   s167   0.00375   #a5 #   4.29   0.1000   2.50   sp_imp_plowable   
;60
s209   STA01   s167   0.00063   #a5 #   1.75   0.1000   2.50   sp_imp_plowable   
;60
s210   STA01   s167   0.00125   #a5 #   2.47   0.1000   2.50   sp_imp_plowable   
;60
s211   STA01   s167   0.00313   #a5 #   3.91   0.1000   2.50   sp_imp_plowable   
;60
s212   STA01   s167   0.00125   #a5 #   2.47   0.1000   2.50   sp_imp_plowable   
;60
s213   STA01   s167   0.00063   #a5 #   1.75   0.1000   2.50   sp_imp_plowable   
;60
s214   STA01   s167   0.00187   #a5 #   3.03   0.1000   2.50   sp_imp_plowable   
;61
s215   STA01   s209   0.00375   #a8 #   4.29   0.1000   2.50   sp_imp_plowable   
;60
s216   STA01   s167   0.00063   #a5 #   1.75   0.1000   2.50   sp_imp_plowable   
;61
s217   STA01   s208   0.00187   #a8 #   3.03   0.1000   2.50   sp_imp_plowable   
;60
s218   STA01   s182   0.00187   #a5 #   3.03   0.1000   2.50   sp_imp_plowable   
;61
s219   STA01   s218   0.00125   #a8 #   2.47   0.1000   2.50   sp_imp_plowable   
;61
s220   STA01   s218   0.00125   #a8 #   2.47   0.1000   2.50   sp_imp_plowable   
;61
s221   STA01   s218   0.00187   #a8 #   3.03   0.1000   2.50   sp_imp_plowable   
;61
s222   STA01   s205   0.00063   #a8 #   1.75   0.1000   2.50   sp_imp_plowable   
;34
s223   STA01   SMH4029160   0.01688   #a6 #   9.09   37.3093   2.50   sp_imp_plowable   
;61
s224   STA01   s223   0.00125   #a8 #   2.47   9.5711   2.50   sp_imp_plowable   
;61
s225   STA01   s223   0.00063   #a8 #   1.75   20.6066   2.50   sp_imp_plowable   
;61
s226   STA01   s223   0.00063   #a8 #   1.75   3.5355   2.50   sp_imp_plowable   
;61
s227   STA01   s223   0.00063   #a8 #   1.75   8.5355   2.50   sp_imp_plowable   
;30
s228   STA01   SMH4028719   0.00375   #a1 #   4.29   8.0807   2.50   sp_imp_nonplowable   
;34
s229   STA01   SMH4028719   0.00063   #a6 #   1.75   12.0711   2.50   sp_imp_plowable   
;34
s230   STA01   SMH4028719   0.00313   #a6 #   3.91   5.8884   2.50   sp_imp_plowable   
;34
s231   STA01   SMH4028719   0.01375   #a6 #   8.21   10.5809   2.50   sp_imp_plowable   
;33
s232   STA01   s230   0.06250   #a4 #   17.50   19.8796   2.50   sp_imp_plowable   
;34
s233   STA01   s228   0.00063   #a6 #   1.75   0.1000   2.50   sp_imp_plowable   
;33
s234   STA01   s233   0.00500   #a4 #   4.95   0.1000   2.50   sp_imp_plowable   
;33
s235   STA01   s233   0.00063   #a4 #   1.75   0.1000   2.50   sp_imp_plowable   
;34
s236   STA01   s232   0.00063   #a6 #   1.75   20.6066   2.50   sp_imp_plowable   
;34
s237   STA01   s232   0.00750   #a6 #   6.06   13.4514   2.50   sp_imp_plowable   
;33
s238   STA01   s237   0.00125   #a4 #   2.47   0.1000   2.50   sp_imp_plowable   
;33
s239   STA01   s237   0.00187   #a4 #   3.03   1.2452   2.50   sp_imp_plowable   
;33
s240   STA01   s237   0.04562   #a4 #   14.95   22.7747   2.50   sp_imp_plowable   
;34
s241   STA01   s240   0.00063   #a6 #   1.75   17.0711   2.50   sp_imp_plowable   
;34
s242   STA01   s240   0.00688   #a6 #   5.80   2.2856   2.50   sp_imp_plowable   
;34
s243   STA01   s240   0.00063   #a6 #   1.75   12.0711   2.50   sp_imp_plowable   
;34
s244   STA01   s240   0.00063   #a6 #   1.75   12.0711   2.50   sp_imp_plowable   
;34
s245   STA01   s240   0.00125   #a6 #   2.47   4.3178   2.50   sp_imp_plowable   
;34
s246   STA01   s240   0.00250   #a6 #   3.50   0.9589   2.50   sp_imp_plowable   
;34
s247   STA01   s240   0.00125   #a6 #   2.47   4.3178   2.50   sp_imp_plowable   
;34
s248   STA01   s240   0.02875   #a6 #   11.87   2.3303   2.50   sp_imp_plowable   
;34
s249   STA01   s240   0.00063   #a6 #   1.75   12.0711   2.50   sp_imp_plowable   
;34
s250   STA01   s240   0.00063   #a6 #   1.75   8.5355   2.50   sp_imp_plowable   
;34
s251   STA01   s240   0.00125   #a6 #   2.47   1.8178   2.50   sp_imp_plowable   
;34
s252   STA01   s240   0.00063   #a6 #   1.75   12.0711   2.50   sp_imp_plowable   
;34
s253   STA01   s240   0.00063   #a6 #   1.75   0.1000   2.50   sp_imp_plowable   
;34
s254   STA01   s240   0.00125   #a6 #   2.47   3.5355   2.50   sp_imp_plowable   
;34
s255   STA01   s240   0.01188   #a6 #   7.63   18.4799   2.50   sp_imp_plowable   
;33
s256   STA01   s255   0.00063   #a4 #   1.75   25.6066   2.50   sp_imp_plowable   
;33
s257   STA01   s255   0.00063   #a4 #   1.75   44.7487   2.50   sp_imp_plowable   
;33
s258   STA01   s248   0.00250   #a4 #   3.50   12.9291   2.50   sp_imp_plowable   
;33
s259   STA01   s255   0.00063   #a4 #   1.75   41.2132   2.50   sp_imp_plowable   
;33
s260   STA01   s255   0.00063   #a4 #   1.75   0.1000   2.50   sp_imp_plowable   
;33
s261   STA01   s255   0.00063   #a4 #   1.75   65.3553   2.50   sp_imp_plowable   
;33
s262   STA01   s255   0.00187   #a4 #   3.03   40.2369   2.50   sp_imp_plowable   
;33
s263   STA01   s255   0.01625   #a4 #   8.92   37.7297   2.50   sp_imp_plowable   
;33
s264   STA01   s255   0.00187   #a4 #   3.03   20.6066   2.50   sp_imp_plowable   
;33
s265   STA01   s255   0.02875   #a4 #   11.87   33.5395   2.50   sp_imp_plowable   
;34
s266   STA01   s265   0.00063   #a6 #   1.75   12.0711   2.50   sp_imp_plowable   
;34
s267   STA01   s265   0.00250   #a6 #   3.50   34.5138   2.50   sp_imp_plowable   
;34
s268   STA01   s265   0.00187   #a6 #   3.03   43.5702   2.50   sp_imp_plowable   
;34
s269   STA01   s265   0.00438   #a6 #   4.63   26.3603   2.50   sp_imp_plowable   
;34
s270   STA01   s265   0.00063   #a6 #   1.75   34.1421   2.50   sp_imp_plowable   
;33
s271   STA01   s269   0.00063   #a4 #   1.75   24.1421   2.50   sp_imp_plowable   
;33
s272   STA01   s267   0.00187   #a4 #   3.03   0.1000   2.50   sp_imp_plowable   
;33
s273   STA01   s269   0.00125   #a4 #   2.47   12.0711   2.50   sp_imp_plowable   
;34
s274   STA01   SMH4029081   0.00500   #a6 #   4.95   0.1000   2.50   sp_imp_plowable   
;33
s275   STA01   SMH4029081   0.00063   #a4 #   1.75   0.1000   2.50   sp_imp_plowable   
;34
s276   STA01   SMH4029082   0.07500   #a6 #   19.17   11.1640   2.50   sp_imp_plowable   
;33
s277   STA01   s276   0.00063   #a4 #   1.75   0.1000   2.50   sp_imp_plowable   
;33
s278   STA01   s276   0.00187   #a4 #   3.03   0.1000   2.50   sp_imp_plowable   
;33
s279   STA01   s276   0.00063   #a4 #   1.75   0.1000   2.50   sp_imp_plowable   
;33
s280   STA01   s276   0.00562   #a4 #   5.25   0.4817   2.50   sp_imp_plowable   
;31
s281   STA01   s276   0.00125   #a2 #   2.47   42.9983   2.50   sp_imp_nonplowable   
;31
s282   STA01   s276   0.00063   #a2 #   1.75   53.2843   2.50   sp_imp_nonplowable   
;31
s283   STA01   s276   0.00125   #a2 #   2.47   133.4155   2.50   sp_imp_nonplowable   
;33
s284   STA01   s276   0.00063   #a4 #   1.75   0.1000   2.50   sp_imp_plowable   
;33
s285   STA01   s276   0.00187   #a4 #   3.03   0.1000   2.50   sp_imp_plowable   
;33
s286   STA01   s276   0.00187   #a4 #   3.03   0.1000   2.50   sp_imp_plowable   
;33
s287   STA01   s276   0.00187   #a4 #   3.03   0.1000   2.50   sp_imp_plowable   
;33
s288   STA01   s276   0.00063   #a4 #   1.75   0.1000   2.50   sp_imp_plowable   
;31
s289   STA01   s276   0.00063   #a2 #   1.75   75.3553   2.50   sp_imp_nonplowable   
;31
s290   STA01   s276   0.00125   #a2 #   2.47   38.9334   2.50   sp_imp_nonplowable   
;31
s291   STA01   s276   0.00063   #a2 #   1.75   20.6066   2.50   sp_imp_nonplowable   
;31
s292   STA01   s276   0.00500   #a2 #   4.95   43.0133   2.50   sp_imp_nonplowable   
;31
s293   STA01   s276   0.00063   #a2 #   1.75   114.6159   2.50   sp_imp_nonplowable   
;33
s294   STA01   s276   0.00750   #a4 #   6.06   0.3863   2.50   sp_imp_plowable   
;34
s295   STA01   s292   0.00125   #a6 #   2.47   6.0855   2.50   sp_imp_plowable   
;34
s296   STA01   s292   0.00125   #a6 #   2.47   6.0855   2.50   sp_imp_plowable   
;34
s297   STA01   s292   0.00500   #a6 #   4.95   6.4724   2.50   sp_imp_plowable   
;31
s298   STA01   s297   0.00063   #a2 #   1.75   17.0711   2.50   sp_imp_nonplowable   
;31
s299   STA01   s297   0.00063   #a2 #   1.75   65.9411   2.50   sp_imp_nonplowable   
;31
s300   STA01   s297   0.00063   #a2 #   1.75   11.4286   2.50   sp_imp_nonplowable   
;33
s301   STA01   s276   0.00063   #a4 #   1.75   0.1000   2.50   sp_imp_plowable   
;33
s302   STA01   SMH4029083   0.00562   #a4 #   5.25   0.1000   2.50   sp_imp_plowable   
;34
s303   STA01   s302   0.00063   #a6 #   1.75   0.1000   2.50   sp_imp_plowable   
;33
s304   STA01   SMH4029085   0.00875   #a4 #   6.55   27.0964   2.50   sp_imp_plowable   
;34
s305   STA01   SMH4029085   0.00063   #a6 #   1.75   46.2132   2.50   sp_imp_plowable   
;34
s306   STA01   SMH4029085   0.00063   #a6 #   1.75   12.0711   2.50   sp_imp_plowable   
;34
s307   STA01   SMH4029085   0.00063   #a6 #   1.75   29.1421   2.50   sp_imp_plowable   
;34
s308   STA01   s304   0.00187   #a6 #   3.03   28.2153   2.50   sp_imp_plowable   
;34
s309   STA01   s304   0.00375   #a6 #   4.29   5.8415   2.50   sp_imp_plowable   
;34
s310   STA01   s304   0.01250   #a6 #   7.83   10.7754   2.50   sp_imp_plowable   
;33
s311   STA01   s308   0.00063   #a4 #   1.75   70.6512   2.50   sp_imp_plowable   
;37
s312   STA01   s310   0.00063   #a10#   1.75   12.0711   2.50   sp_imp_plowable   
;33
s313   STA01   s308   0.00063   #a4 #   1.75   37.3459   2.50   sp_imp_plowable   
;33
s314   STA01   s308   0.00063   #a4 #   1.75   46.6274   2.50   sp_imp_plowable   
;37
s315   STA01   s310   0.00063   #a10#   1.75   12.0711   2.50   sp_imp_plowable   
;62
s316   STA01   s304   0.00125   #a11#   2.47   4.3178   2.50   sp_per   
;33
s317   STA01   s309   0.00063   #a4 #   1.75   20.6066   2.50   sp_imp_plowable   
;37