
;;____________________________________________________________________________________________________
[TITLE]
;;Project Title/Notes
;;Generated with the GisToSWMM5 program

;;____________________________________________________________________________________________________
[OPTIONS]
;Option Value
FLOW_UNITS   LPS
INFILTRATION   GREEN_AMPT
FLOW_ROUTING   DYNWAVE
LINK_OFFSETS   DEPTH
MIN_SLOPE   0
ALLOW_PONDING   YES
SKIP_STEADY_STATE   NO
START_DATE           07/06/2021
START_TIME           00:00:00
REPORT_START_DATE    07/06/2021
REPORT_START_TIME    00:00:00
END_DATE             07/06/2021
END_TIME             5:00
SWEEP_START   1/1
SWEEP_END   12/31
DRY_DAYS   0
REPORT_STEP   0:05:00
WET_STEP   0:01:00
DRY_STEP   0:01:00
ROUTING_STEP   0:00:01
INERTIAL_DAMPING   PARTIAL
NORMAL_FLOW_LIMITED   BOTH
FORCE_MAIN_EQUATION   H-W
VARIABLE_STEP   0.75
LENGTHENING_STEP   0
MIN_SURFAREA   0.5027
MAX_TRIALS   8
HEAD_TOLERANCE   0.0015
SYS_FLOW_TOL   5
LAT_FLOW_TOL   5
MINIMUM_STEP   0.5
THREADS   1
IGNORE_SNOWMELT   YES

;;____________________________________________________________________________________________________
[REPORT]
;;Reporting Options
INPUT   NO
CONTINUITY   YES
FLOWSTATS   YES
CONTROLS   YES
SUBCATCHMENTS   NONE
NODES   SBP40128811 SBP40184801
LINKS   NONE

;;____________________________________________________________________________________________________
[EVAPORATION]
;;Evap Data      Parameters
;;-------------- ----------------
TEMPERATURE
DRY_ONLY   YES

;;____________________________________________________________________________________________________
[TEMPERATURE]
;;Temp/Wind/Snow   Source/Data
FILE   ../climate.DAT
WINDSPEED   FILE

;;____________________________________________________________________________________________________
[JUNCTIONS]
;;Junction       Invert     MaxDepth   InitDepth  SurDepth   Aponded
;;-------------- ---------- ---------- ---------- ---------- ----------
SMH4078080   6.13   3.61   0   0   1
SMH4075020   7.36   3.63   0   0   1
SMH4079260   25.191   3.6   0   0   1
SMH4079880   6.699   3.6   0   0   1
SMH4081940   15.18   4.48   0   0   1
SMH4083760   6.168   3.6   0   0   1
SMH4083761   6.474   3.6   0   0   1
SMH4083762   6.639   3.6   0   0   1
SMH4082500   22.217   3.723   0   0   1
SMH4097740   35.63   3.65   0   0   1
SMH4097741   35.08   3.6   0   0   1
SMH4012812   6.33   3.6   0   0   1
SMH4012813   5.43   3.68   0   0   1
SMH4012814   5.81   3.6   0   0   1
SMH4012815   5.75   3.6   0   0   1
SMH4012816   5.19   3.6   0   0   1
SMH4012818   5.47   3.6   0   0   1
SMH4012819   5.17   3.67   0   0   1
SMH4012820   5.46   3.6   0   0   1
SMH4023730   15.73   3.6   0   0   1
SMH4023731   15.6   3.6   0   0   1
SMH4023735   14.86   3.6   0   0   1
SMH4029515   30.6   3.6   0   0   1
SMH4029516   30.1   3.6   0   0   1
SMH4029159   59.1   3.68   0   0   1
SMH4029160   58.35   3.69   0   0   1
SMH4028719   24.82   4.97   0   0   1
SMH4029081   30.71   3.6   0   0   1
SMH4029082   30.32   3.6   0   0   1
SMH4029083   32.66   3.6   0   0   1
SMH4029085   28.65   3.69   0   0   1
SMH4029115   58.54   3.6   0   0   1
SMH4029116   56.32   3.6   0   0   1
SMH4029118   49.12   3.62   0   0   1
SMH4029099   34.48   4.2   0   0   1
SMH4029100   32.63   4.37   0   0   1
SMH4029086   24.17   4.37   0   0   1
SMH4029087   20.83   3.6   0   0   1
SMH4029088   20.02   3.6   0   0   1
SMH4029089   17.06   3.6   0   0   1
SMH4029090   16.89   3.6   0   0   1
SMH4029091   16.88   3.6   0   0   1
SMH4029092   50.54   3.6   0   0   1
SMH4029094   46.22   4.51   0   0   1
SMH4029095   44.5   4.11   0   0   1
SMH4028693   26.02   3.6   0   0   1
SMH4028694   25.47   3.6   0   0   1
SMH4028696   20.54   3.6   0   0   1
SMH4028697   16.77   3.6   0   0   1
SMH4028698   16.04   3.6   0   0   1
SMH4028547   24.642   3.6   0   0   1
SMH4028549   30.92   4.68   0   0   1
SMH4028550   30.55   3.97   0   0   1
SMH4028551   29.49   3.6   0   0   1
SMH4028553   26.93   3.6   0   0   1
SMH4028554   26.6   3.6   0   0   1
SMH4028555   26.39   3.6   0   0   1
SMH4028557   24.3   3.6   0   0   1
SMH4029101   29.61   5.71   0   0   1
SMH4029102   27.34   4.66   0   0   1
SMH4029103   24.7   5.53   0   0   1
SMH4029104   22.31   5.23   0   0   1
SMH4029105   19.16   6   0   0   1
SMH4028517   10.82   3.6   0   0   1
SMH4029097   38.86   4.87   0   0   1
SMH4028639   16.8   3.6   0   0   1
SMH4028640   16.76   3.6   0   0   1
SMH4028641   17.96   3.6   0   0   1
SMH4028642   17.82   3.77   0   0   1
SMH4028643   17.89   3.72   0   0   1
SMH4028645   17.7   3.6   0   0   1
SMH4028646   17.08   3.6   0   0   1
SMH4028647   16.54   3.6   0   0   1
SMH4028648   15.94   3.6   0   0   1
SMH4028652   18.09   3.6   0   0   1
SMH4028653   17.572   3.6   0   0   1
SMH4028654   15.08   4.34   0   0   1
SMH4028657   33.22   3.6   0   0   1
SMH4028658   32.96   3.6   0   0   1
SMH4028699   18.9   3.6   0   0   1
SMH4028978   37.4   3.6   0   0   1
SMH4028979   37.16   3.63   0   0   1
SMH4028980   34.52   3.64   0   0   1
SMH4028982   31.54   3.67   0   0   1
SMH4028983   30.15   3.6   0   0   1
SMH4028984   29.69   3.6   0   0   1
SMH4028986   26.03   3.6   0   0   1
SMH4028987   25.17   3.6   0   0   1
SMH4028988   22.87   3.6   0   0   1
SMH4028990   19.08   3.61   0   0   1
SMH4029107   16.35   3.6   0   0   1
SMH4029108   16.2   3.78   0   0   1
SMH4029109   16.17   3.79   0   0   1
SMH4029111   16.28   3.6   0   0   1
SMH4029106   16.63   5.74   0   0   1
SMH4028750   36.12   3.6   0   0   1
SMH4029158   60.98   3.68   0   0   1
SMH4029123   34.97   3.6   0   0   1
SMH4029125   31.74   3.6   0   0   1
SMH4029126   28.7   3.6   0   0   1
SMH4029127   24.78   3.6   0   0   1
SMH4028763   34.93   3.6   0   0   1
SMH4028764   34.63   3.6   0   0   1
SMH4028765   59.48   3.6   0   0   1
SMH4028766   53.79   3.6   0   0   1
SMH4028767   47.83   3.6   0   0   1
SMH4028768   45.33   3.6   0   0   1
SMH4028769   39.771   3.6   0   0   1
SMH4028770   38.4   3.68   0   0   1
SMH4028655   14.13   3.6   0   0   1
SMH4028668   13.55   3.6   0   0   1
SMH4028672   17.47   3.6   0   0   1
SMH4028673   16.98   3.64   0   0   1
SMH4028700   18.45   3.6   0   0   1
SMH4028701   18.15   3.6   0   0   1
SMH4028705   18.06   3.6   0   0   1
SMH4029072   40.8   3.658   0   0   1
SMH4028991   14.29   3.6   0   0   1
SMH4028992   12.12   3.68   0   0   1
SMH4028993   9.68   3.6   0   0   1
SMH4028994   8.83   3.64   0   0   1
SMH4028995   7.75   3.6   0   0   1
SMH4028996   6.86   3.6   0   0   1
SMH4028997   5.91   3.67   0   0   1
SMH4028999   38.24   3.6   0   0   1
SMH4029073   40.5   3.6   0   0   1
SMH4029074   39.87   4.13   0   0   1
SMH4029075   39.39   4.51   0   0   1
SMH4029076   36.74   4.23   0   0   1
SMH4029077   32.64   5.58   0   0   1
SMH4029078   31.64   3.6   0   0   1
SMH4029079   31.36   3.6   0   0   1
SMH4028780   45.09   3.6   0   0   1
SMH4028781   42.7   3.6   0   0   1
SMH4028783   45.76   3.6   0   0   1
SMH4028665   17.31   3.63   0   0   1
SMH4028667   14.46   3.61   0   0   1
SMH4028669   17.36   3.6   0   0   1
SMH4028670   16.96   3.6   0   0   1
SMH4028678   31.071   3.6   0   0   1
SMH4028679   30.6   3.79   0   0   1
SMH4028680   28.88   3.6   0   0   1
SMH4028681   27.71   3.6   0   0   1
SMH4028682   25.12   3.6   0   0   1
SMH4028372   28.02   3.6   0   0   1
SMH4028684   22.41   4.09   0   0   1
SMH4028685   37.97   3.6   0   0   1
SMH4028686   25.36   3.6   0   0   1
SMH4028689   31.72   3.6   0   0   1
SMH4028691   30.748   3.6   0   0   1
SMH4028692   29.6   3.9   0   0   1
SMH4028373   27.85   3.6   0   0   1
SMH4028771   36.99   4.25   0   0   1
SMH4028772   35.98   3.84   0   0   1
SMH4028773   34.71   3.6   0   0   1
SMH4028774   34.41   3.6   0   0   1
SMH4028775   35.11   3.6   0   0   1
SMH4028776   33.83   3.72   0   0   1
SMH4028777   34.35   3.6   0   0   1
SMH4028778   34.21   3.6   0   0   1
SMH4028751   34.32   3.6   0   0   1
SMH4028676   34.13   3.6   0   0   1
SMH4028784   46.69   3.6   0   0   1
SMH4028785   45.46   3.6   0   0   1
SMH4029147   71.71   3.6   0   0   1
SMH4029148   71.45   3.6   0   0   1
SMH4029149   71.07   3.6   0   0   1
SMH4029150   70.67   3.6   0   0   1
SMH4029151   69.47   3.6   0   0   1
SMH4029152   67.03   3.6   0   0   1
SMH4029153   61.54   3.6   0   0   1
SMH4029154   67.76   3.78   0   0   1
SMH4029155   65.11   3.72   0   0   1
SMH4029113   46.12   3.6   0   0   1
SMH4029119   45.73   3.6   0   0   1
SMH4029120   42.75   3.6   0   0   1
SMH4029121   39.61   3.6   0   0   1
SMH4029122   36.93   3.6   0   0   1
SMH4029129   18.32   3.7   0   0   1
SMH4029130   16.25   3.96   0   0   1
SMH4029131   14.91   3.7   0   0   1
SMH4029133   36.29   3.6   0   0   1
SMH4029137   36.5   3.6   0   0   1
SMH4029139   36.9   3.6   0   0   1
SMH4029142   13.26   3.6   0   0   1
SMH4029499   36.57   3.6   0   0   1
SMH4028690   34.62   3.6   0   0   1
SMH4028714   25.19   3.6   0   0   1
SMH4028716   27.21   3.6   0   0   1
SMH4028717   26.72   3.6   0   0   1
SMH4028718   26.62   3.6   0   0   1
SMH4029156   64.2   4.45   0   0   1
SMH4029157   63.39   3.67   0   0   1
SMH4029060   27.74   3.6   0   0   1
SMH4029061   24.36   3.6   0   0   1
SMH4029062   20.74   3.6   0   0   1
SMH4029063   17.54   3.6   0   0   1
SMH4028659   32.05   3.6   0   0   1
SMH4028660   29.4   3.85   0   0   1
SMH4028661   25.67   3.6   0   0   1
SMH4028662   24.26   3.94   0   0   1
SMH4028663   21.74   3.91   0   0   1
SMH4028664   19.84   3.6   0   0   1
SMH4028614   18.98   3.6   0   0   1
SMH4028615   17.42   4.47   0   0   1
SMH4028616   16.9   3.6   0   0   1
SMH4028617   16.48   3.6   0   0   1
SMH4028618   15.89   3.6   0   0   1
SMH4028619   15.68   3.62   0   0   1
SMH4028620   15.69   3.83   0   0   1
SMH4028621   15.03   3.63   0   0   1
SMH4028623   13.05   3.6   0   0   1
SMH4028626   13.36   3.6   0   0   1
SMH4028627   12.57   3.6   0   0   1
SMH4028628   12.36   3.61   0   0   1
SMH4028630   11.763   3.6   0   0   1
SMH4028644   15.16   3.6   0   0   1
SMH4028649   15.46   3.6   0   0   1
SMH4028519   34.17   3.6   0   0   1
SMH4028521   32.4   3.6   0   0   1
SMH4028522   30.84   3.6   0   0   1
SMH4028523   29.01   3.6   0   0   1
SMH4028525   25.99   3.6   0   0   1
SMH4028526   24.76   3.6   0   0   1
SMH4028527   21.63   5.44   0   0   1
SMH4028528   19.95   5.1   0   0   1
SMH4028530   17.23   5.21   0   0   1
SMH4028531   16   4.89   0   0   1
SMH4028535   11.7   4.14   0   0   1
SMH4028536   10.74   4.2   0   0   1
SMH4028637   22.85   3.6   0   0   1
SMH4028638   20.87   4.6   0   0   1
SMH4028579   16.48   3.6   0   0   1
SMH4028580   15.92   3.65   0   0   1
SMH4028581   16.43   3.6   0   0   1
SMH4028584   19.71   3.6   0   0   1
SMH4028585   17.39   3.6   0   0   1
SMH4028586   16.63   3.6   0   0   1
SMH4028377   24.517   3.6   0   0   1
SMH4028378   17.6   3.6   0   0   1
SMH4028379   17.46   3.6   0   0   1
SMH4028381   13.88   3.6   0   0   1
SMH4028382   13.69   3.6   0   0   1
SMH4028383   12.85   3.6   0   0   1
SMH4028385   11.76   3.6   0   0   1
SMH4028386   11.41   3.6   0   0   1
SMH4028387   9.56   4.25   0   0   1
SMH4028605   13.63   3.6   0   0   1
SMH4028506   11.05   3.6   0   0   1
SMH4028507   10.54   3.6   0   0   1
SMH4028508   7.34   3.67   0   0   1
SMH4028509   7.32   4.45   0   0   1
SMH4028607   14.1   3.6   0   0   1
SMH4028608   14.17   3.6   0   0   1
SMH4028609   13.71   3.76   0   0   1
SMH4028610   14.93   3.6   0   0   1
SMH4028611   13.94   4.29   0   0   1
SMH4028612   14.12   3.6   0   0   1
SMH4028613   13.82   4.76   0   0   1
SMH4028459   4.8   3.67   0   0   1
SMH4028573   16.86   3.6   0   0   1
SMH4028588   15.1   3.6   0   0   1
SMH4028589   15.91   3.6   0   0   1
SMH4028590   15.603   3.6   0   0   1
SMH4028592   17.13   3.61   0   0   1
SMH4028593   16.51   3.63   0   0   1
SMH4028596   17.54   3.69   0   0   1
SMH4028598   16.27   3.61   0   0   1
SMH4028599   15.44   3.61   0   0   1
SMH4028600   14.25   4.36   0   0   1
SMH4028602   13.09   4.57   0   0   1
SMH4028603   12.6   3.61   0   0   1
SMH4028604   13.75   3.6   0   0   1
SMH4029217   14.74   3.6   0   0   1
SMH4029218   14.44   3.6   0   0   1
SMH4029502   8.82   3.6   0   0   1
SMH4029503   9.12   3.6   0   0   1
SMH4029517   12.04   3.6   0   0   1
SMH4028574   16.56   3.6   0   0   1
SMH4028577   20.26   3.6   0   0   1
SMH4028578   18.03   3.6   0   0   1
SMH4028583   18.57   4.99   0   0   1
SMH4028632   21.66   3.6   0   0   1
SMH4028634   17.03   3.6   0   0   1
SMH4028635   16.54   3.6   0   0   1
SMH4028636   15.16   3.6   0   0   1
SMH4029071   41.74   3.6   0   0   1
SMH4028405   13.37   3.6   0   0   1
SMH4028407   13.69   3.6   0   0   1
SMH4028409   11.84   3.91   0   0   1
SMH4028410   10.63   5.17   0   0   1
SMH4028412   13.08   3.6   0   0   1
SMH4028374   27.07   3.64   0   0   1
SMH4028376   25.78   3.6   0   0   1
SMH4028485   6.92   3.75   0   0   1
SMH4028486   8.03   3.6   0   0   1
SMH4028487   7.85   3.6   0   0   1
SMH4028413   12.29   3.63   0   0   1
SMH4028414   11.53   3.6   0   0   1
SMH4028537   10.17   4.03   0   0   1
SMH4028538   10.34   3.6   0   0   1
SMH4028539   10.17   4.43   0   0   1
SMH4028540   9.87   3.91   0   0   1
SMH4028542   10.93   3.6   0   0   1
SMH4028543   10.653   3.6   0   0   1
SMH4028484   7.58   3.81   0   0   1
SMH4028558   22.76   3.6   0   0   1
SMH4028559   21.11   3.6   0   0   1
SMH4028561   18.03   3.6   0   0   1
SMH4028562   16.34   3.6   0   0   1
SMH4028563   15.88   3.6   0   0   1
SMH4028566   19.78   3.6   0   0   1
SMH4028567   17.24   4.98   0   0   1
SMH4028568   16.34   3.62   0   0   1
SMH4029043   51.31   3.6   0   0   1
SMH4028510   7.13   5.57   0   0   1
SMH4028512   8.71   3.62   0   0   1
SMH4028569   15.9   3.6   0   0   1
SMH4028570   27.22   3.6   0   0   1
SMH4028571   26.86   3.66   0   0   1
SMH4028572   26.57   3.6   0   0   1
SMH4028490   7.39   3.6   0   0   1
SMH4028491   7.15   3.6   0   0   1
SMH4028492   6.37   4.3   0   0   1
SMH4028494   7.49   3.6   0   0   1
SMH4028496   7.18   3.6   0   0   1
SMH4028497   6.75   3.6   0   0   1
SMH4028499   6.61   3.6   0   0   1
SMH4028500   6.51   3.6   0   0   1
SMH4028501   6.25   3.79   0   0   1
SMH4028503   11.46   3.6   0   0   1
SMH4028504   11.36   3.6   0   0   1
SMH4028545   26.22   3.6   0   0   1
SMH4028546   25.44   3.6   0   0   1
SMH4028513   8.98   3.6   0   0   1
SMH4028514   8.54   3.6   0   0   1
SMH4028515   9.01   3.6   0   0   1
SMH4028516   6.62   3.7   0   0   1
SMH4028505   11.28   3.6   0   0   1
SMH4028565   14.56   4.06   0   0   1
SMH4028400   16.053   3.6   0   0   1
SMH4028401   15.12   3.6   0   0   1
SMH4028402   14.57   3.6   0   0   1
SMH4029044   51.21   3.6   0   0   1
SMH4029045   49.14   3.92   0   0   1
SMH4029046   46.13   3.75   0   0   1
SMH4029047   43.99   3.6   0   0   1
SMH4029049   38.44   5.02   0   0   1
SMH4029050   36.19   3.6   0   0   1
SMH4029051   35.53   3.6   0   0   1
SMH4029053   31.65   3.93   0   0   1
SMH4029054   29.78   3.6   0   0   1
SMH4029055   29.68   3.6   0   0   1
SMH4029057   29.44   3.73   0   0   1
SMH4029058   29.47   3.6   0   0   1
SMH4029059   28.28   3.6   0   0   1
SMH4032791   17.75   3.6   0   0   1
SMH4032793   16.36   3.6   0   0   1
SMH4032794   16.08   3.6   0   0   1
SMH4032811   17.34   3.6   0   0   1
SMH4081522   5.142   3.6   0   0   1
SMH4056305   69.5   3.6   0   0   1
SMH4056306   68.7   3.63   0   0   1
SMH4056307   62.27   3.69   0   0   1
SMH4056302   58.65   3.62   0   0   1
SMH4056303   58.91   3.63   0   0   1
SMH4056304   60.4   3.68   0   0   1
SMH4053588   39.15   3.6   0   0   1
SMH4053589   38.05   3.6   0   0   1
SMH4053590   37.68   3.63   0   0   1
SMH4058123   6.8   3.74   0   0   1
SMH4058124   6.85   3.63   0   0   1
SMH4058140   6.89   3.6   0   0   1
SMH4058122   7.19   3.6   0   0   1
SMH4058120   8.99   4.19   0   0   1
SMH4058121   8   4.87   0   0   1
SMH4059520   26.255   3.6   0   0   1
SMH4058141   5.6   3.6   0   0   1
SMH4084623   4.41   4.16   0   0   1
SMH4083763   7.002   3.6   0   0   1
SMH4083764   7.256   3.6   0   0   1
SMH4083765   7.414   3.6   0   0   1
SMH4083766   7.56   3.6   0   0   1
SMH4053582   40.46   3.6   0   0   1
SMH4053583   40.04   3.6   0   0   1
SMH4056301   57.99   3.65   0   0   1
SMH4059900   15.25   3.71   0   0   1
SMH4059901   16.28   3.6   0   0   1
SMH4059581   32.67   3.6   0   0   1
SMH4069981   4.37   3.85   0   0   1
SMH4059548   28.184   3.6   0   0   1
SMH4062320   11.63   4.76   0   0   1
SMH4062321   10.9   3.6   0   0   1
SMH4069961   13.76   3.6   0   0   1
SMH4069962   13.49   3.6   0   0   1
SMH4069963   13.46   3.6   0   0   1
SMH4069964   13.04   5.04   0   0   1
SMH4069965   12.32   3.9   0   0   1
SMH4069966   11.84   4   0   0   1
SMH4069968   11.17   3.6   0   0   1
SMH4069969   11.09   3.6   0   0   1
SMH4069970   11.045   3.6   0   0   1
SMH4069971   10.905   3.6   0   0   1
SMH4069973   10.47   4.45   0   0   1
SMH4069975   10.35   4.42   0   0   1
SMH4069976   10.295   4.475   0   0   1
SMH4069977   9.61   3.62   0   0   1
SMH4069978   8.61   4.18   0   0   1
SMH4069979   6.36   4.19   0   0   1
SMH4069980   5.075   3.98   0   0   1
SMH4069982   4.26   3.6   0   0   1
SMH4069974   10.38   4.36   0   0   1
SMH4069960   13.925   3.6   0   0   1
SMH4068841   46.03   3.6   0   0   1
SMH4068842   36.781   3.6   0   0   1
SMH4068843   36.5   4.55   0   0   1
SMH4068840   46.33   3.6   0   0   1
SMH4112159   25.331   3.6   0   0   1
SMH4086360   26.15   3.79   0   0   1
SMH4095401   16.21   3.6   0   0   1
SMH4079262   7.244   3.6   0   0   1
SMH4079863   16   3.6   0   0   1
SMH4113039   25.672   3.6   0   0   1
SMH4113166   24.08   3.62   0   0   1
SMH4012817   5.1   3.6   0   0   1
SMH4012821   4.97   3.74   0   0   1
SMH4029132   21.82   3.6   0   0   1
SMH4029138   36.93   3.6   0   0   1
SMH4028715   24.03   3.6   0   0   1
SMH4028720   24.45   3.6   0   0   1
SMH4029161   57.14   3.6   0   0   1
SMH4028622   13.23   5.13   0   0   1
SMH4028629   12.25   3.61   0   0   1
SMH4028650   14.691   3.6   0   0   1
SMH4029084   27.84   4.22   0   0   1
SMH4028520   32.76   3.6   0   0   1
SMH4028524   27.47   3.6   0   0   1
SMH4028529   18.15   5.7   0   0   1
SMH4029098   36.77   3.62   0   0   1
SMH4029093   48.28   4.6   0   0   1
SMH4028695   23.79   3.6   0   0   1
SMH4028548   31.22   5.28   0   0   1
SMH4028552   27.32   3.6   0   0   1
SMH4028556   26.25   3.6   0   0   1
SMH4032792   17.74   3.6   0   0   1
SMH4028518   10.51   3.6   0   0   1
SMH4028380   14.36   3.6   0   0   1
SMH4028384   12.48   3.6   0   0   1
SMH4028388   10.11   4.259   0   0   1
SMH4028606   12.5   3.6   0   0   1
SMH4029096   42.21   4.53   0   0   1
SMH4028981   32.34   3.6   0   0   1
SMH4028985   27.25   3.6   0   0   1
SMH4028989   22.45   3.6   0   0   1
SMH4028587   16.25   3.62   0   0   1
SMH4029124   34.78   3.6   0   0   1
SMH4029128   21.48   3.6   0   0   1
SMH4028671   15.77   3.6   0   0   1
SMH4028675   16.45   3.6   0   0   1
SMH4028702   16.47   3.6   0   0   1
SMH4028591   17.62   3.6   0   0   1
SMH4028595   17.78   3.6   0   0   1
SMH4028597   17.25   4.15   0   0   1
SMH4028601   13.23   4.13   0   0   1
SMH4029501   8.96   3.78   0   0   1
SMH4028575   14.91   3.6   0   0   1
SMH4028582   21.13   3.6   0   0   1
SMH4028415   11.12   3.6   0   0   1
SMH4028998   43.28   3.6   0   0   1
SMH4028633   19.25   3.6   0   0   1
SMH4028406   13.21   4.18   0   0   1
SMH4028411   10.36   4.009   0   0   1
SMH4028666   14.58   3.6   0   0   1
SMH4028677   32.54   3.6   0   0   1
SMH4028683   23.94   3.6   0   0   1
SMH4028375   26.44   3.6   0   0   1
SMH4028488   7.25   3.82   0   0   1
SMH4028483   7.93   3.6   0   0   1
SMH4028560   19.73   3.6   0   0   1
SMH4028564   14.96   3.87   0   0   1
SMH4028511   6.9   5.37   0   0   1
SMH4028489   7.61   3.6   0   0   1
SMH4028493   7.63   3.6   0   0   1
SMH4028502   6.34   3.6   0   0   1
SMH4029048   41.23   4.05   0   0   1
SMH4029052   33.76   4.67   0   0   1
SMH4029056   29.53   3.6   0   0   1
SMH4029114   43.22   3.6   0   0   1
SMH4056308   59.83   3.65   0   0   1
SMH4069972   10.87   3.64   0   0   1
SMH4053584   39.84   3.6   0   0   1
SMH4053591   36.99   3.6   0   0   1
SMH4112979   6.55   3.6   0   0   1
SMH4069967   11.26   3.6   0   0   1
SMH4113151   18.399   3.6   0   0   1
SMH4113814   24.47   4   0   0   1
SMH4113815   25.53   3.61   0   0   1
SWD4032058   46.42   14.58   0   0   1
SWD4031621   24.87   3.6   0   0   1
SWD4032062   51.94   4.06   0   0   1
SWD4068020   3.3   4.81   0   0   1
SWD4097922   16.1   3.6   0   0   1
SWD4031440   10.48   4.52   0   0   1
SWD4031412   8.97   3.6   0   0   1
SWD4134881   25.631   4.369   0   0   1
SWD4031619   18.36   3.6   0   0   1
SWD4032096   11.279   3.721   0   0   1
SWD4031512   14.16   3.84   0   0   1
SWD4031516   15.23   3.77   0   0   1
SWD4032054   27.64   3.6   0   0   1
SWD4031529   11.77   16.23   0   0   1
SWD4032563   11.92   5.08   0   0   1
SWD4032565   8.93   4.07   0   0   1
SWD40324951   5.902   3.6   0   0   1
SWD4031390   7.43   3.6   0   0   1
SWD4031394   6.91   3.6   0   0   1
SWD4031406   9.03   3.6   0   0   1
SWD4032027   29   7   0   0   1
SWD4032028   29.04   10.96   0   0   1
SWD4032029   24.64   3.6   0   0   1
SWD4031703   46.06   3.94   0   0   1
SWD4032473   9.44   3.6   0   0   1
SWD4032715   7.29   3.702   0   0   1
SWD4031556   13.65   8.35   0   0   1
SWD4032115   65.58   3.6   0   0   1
SWD4031547   18.26   3.6   0   0   1
SWD4032087   31.66   3.6   0   0   1
SWD4032461   41.1   3.6   0   0   1
SWD4032083   37.45   4.08   0   0   1
SWD4032462   40.17   3.6   0   0   1
SWD4032465   46.43   5.57   0   0   1
SWD4032469   31.01   3.6   0   0   1
SWD4032492   33.52   3.6   0   0   1
SWD4031418   9.4   3.6   0   0   1
SWD4032082   39.19   3.81   0   0   1
SWD4031473   27.19   3.6   0   0   1
SWD4032093   39.16   3.84   0   0   1
SWD4032094   42.51   3.6   0   0   1
SWD4032095   42.51   3.6   0   0   1
SWD4032458   10.44   3.6   0   0   1
SWD4031608   17.61   3.6   0   0   1
SWD4031620   24.9   3.6   0   0   1
SWD4032020   42.04   10.96   0   0   1
SWD4032000   51.51   3.6   0   0   1
SWD4032002   49.23   3.6   0   0   1
SWD4032494   31.34   6.66   0   0   1
SWD4062132   40.23   3.77   0   0   1
SWD4068021   3.321   4.679   0   0   1
SWD4086064   32.64   3.6   0   0   1
SWD4094826   27.64   3.6   0   0   1
SWD4096300   6.44   3.6   0   0   1
SWD4098660   5.65   5.35   0   0   1
SWD4099362   63.69   3.6   0   0   1
SWD4094803   25.74   3.6   0   0   1
SWD4098591   22.64   3.6   0   0   1
SWD4069592   33.024   3.976   0   0   1
SWD4062146   40.89   5.11   0   0   1
SWD4032472   9.37   3.63   0   0   1
SWD4032086   37.03   3.6   0   0   1
SWD4032092   37.07   3.93   0   0   1
SWD4103262   26.64   5.36   0   0   1
SWD4109723   25.74   3.6   0   0   1
SWD4115249   5.88   3.6   0   0   1
SWD4115243   51.36   3.6   0   0   1
SWD4095501   6.67   3.6   0   0   1
SWD4032468   15.73   3.6   0   0   1
SWD4031443   11.23   3.77   0   0   1
SWD4113765   6.92   4.08   0   0   1
SWD4115532   40.8   6.2   0   0   1
SWD4115531   40.37   3.6   0   0   1
SWD4115535   37.63   3.6   0   0   1
SWD4135982   6.85   3.6   0   0   1
SWD4032464   44.29   5.71   0   0   1
SWD4031697   34.67   4.33   0   0   1
SWD4115250   19.24   3.6   0   0   1
SWD4115251   30.9   4.1   0   0   1
SWD4115252   24.87   3.6   0   0   1
SWD4115601   26.13   3.87   0   0   1
SWD4115602   23.41   9.59   0   0   1
SWD4117242   34   3.6   0   0   1
SWD4032059   49.58   15.42   0   0   1
SWD4031592   24.24   9.76   0   0   1
SWD4072980   13.09   7.91   0   0   1
SWD4115140   40.41   3.6   0   0   1
SWD4136323   24.22   3.78   0   0   1
SWD4124341   14.558   4.442   0   0   1
SWD4136976   25   3.6   0   0   1
SWD4136977   25.6   5.4   0   0   1
SWD4032489   31.22   4.78   0   0   1
SMD4001180   14.24   4.76   0   0   1
SWD4136319   23.26   4.39   0   0   1
SWD4082283   2.913   4.817   0   0   1
SWD4032716   4.906   3.6   0   0   1
SWD40324952   5.89   4.02   0   0   1
Absent   14.258   4.682   0   0   1
SBP40027631   9.362   3.638   0   0   1
SBP40136821   11.791   16.209   0   0   1
SBP40136822   11.773   16.227   0   0   1
SBP40136841   12.702   6.298   0   0   1
SBP40027651   14.388   5.612   0   0   1
SBP40027652   14.275   7.725   0   0   1
SBP40027661   17.24   3.6   0   0   1
SBP40091001   6.705   3.6   0   0   1
SBP40091002   5.578   3.6   0   0   1
SBP40167801   15.007   3.993   0   0   1
SBP40136221   13.148   6.852   0   0   1
SBP40097061   15.51   4.49   0   0   1
SBP40129001   2.89   5.22   0   0   1
SBP40129002   2.88   5.213   0   0   1
SBP40136201   5.543   4.457   0   0   1
SBP40136202   5.481   3.6   0   0   1
SBP40136211   7.308   4.801   0   0   1
SBP40136212   7.3   4.439   0   0   1
SBP40130601   2.923   4.907   0   0   1
SBP40130602   2.903   4.727   0   0   1
SBP40097801   4.89   3.6   0   0   1
SBP40098201   12.75   9.25   0   0   1
SBP40098202   12.906   7.094   0   0   1
SBP40135571   2.973   13.027   0   0   1
SBP40135581   2.87   5.142   0   0   1
SBP40136831   7.239   3.6   0   0   1
SBP40027621   10.293   6.707   0   0   1
SBP40027681   10.855   7.145   0   0   1
SBP40027701   7.35   4.65   0   0   1
SBP40027601   16.26   4.68   0   0   1
SBP40027641   14.71   5.29   0   0   1
SBP40090831   7.31   4.91   0   0   1
SBP40128801   3.28   5   0   0   1
SBP40090841   6.44   4.413   0   0   1
SBP40090821   7.013   3.6   0   0   1
SDP40001001   6.32   3.6   0   0   1
SDP40001002   6.284   3.6   0   0   1
SDP40007901   6.21   3.6   0   0   1
SDP40007902   3.044   3.956   0   0   1
SDP40016201   2.958   4.042   0   0   1
SDP40017801   7.27   3.6   0   0   1
SWD40315731   12.95   9.05   0   0   1
SWD40313821   6.729   4.271   0   0   1
SWD40313141   10.738   4.262   0   0   1
SWD41013231   2.868   5.142   0   0   1
SWD40314341   13.2   5.8   0   0   1
SWD40315861   30.79   3.7   0   0   1
SWD40314091   7.984   3.6   0   0   1
SWD40325621   14.26   7.74   0   0   1
SWD40321791   14.961   3.6   0   0   1
SWD40315481   12.95   11.05   0   0   1
SWD40325641   10.9   7.1   0   0   1
SWD40325661   7.309   4.811   0   0   1
SWD40313581   5.229   3.6   0   0   1
SWD40313582   5.06   3.6   0   0   1
SWD40320261   18.18   3.6   0   0   1
SWD40320171   31.04   3.96   0   0   1
SWD40313121   10.669   3.6   0   0   1
SWD40314131   6.62   3.6   0   0   1
SWD40680071   5.48   3.6   0   0   1
SWD40680031   6.7   3.6   0   0   1
SWD40933401   6.07   4.21   0   0   1
SWD40986601   5.6   3.58   0   0   1
SWD40955041   15   4   0   0   1
SWD40316091   18.74   3.6   0   0   1
SWD40316101   18.8   3.6   0   0   1
crosspoint   6.41   3.6   0   0   1

;;____________________________________________________________________________________________________
[OUTFALLS]
;;Outfall        Invert     Type       Stage Data       Gated
;;-------------- ---------- ---------- ---------------- --------
SBP40128811   2.9   FREE      NO
SBP40184801   2.86   FREE      NO

;;____________________________________________________________________________________________________
[STORAGE]
;;Name           Elev.    MaxDepth   InitDepth  Shape      Curve Name/Params                     Fevap    Psi      Ksat     IMD
;;-------------- -------- ---------- ----------- ---------- ---------------------------- -------- --------          -------- --------

;;____________________________________________________________________________________________________
[DWF]
;;Node           Constituent      Baseline   Patterns
;;-------------- ---------------- ---------- ----------

;;____________________________________________________________________________________________________
[INFLOWS]
;;Node           Constituent      Time Series      Type     Mfactor  Sfactor  Baseline Pattern
;;-------------- ---------------- ---------------- -------- -------- -------- -------- --------
SBP40184801      FLOW             ""               FLOW     1.0      1.0      65

;;____________________________________________________________________________________________________
[CONDUITS]
;;Conduit        From Node        To Node          Length     Roughness  InOffset   OutOffset  InitFlow   MaxFlow
;;-------------- ---------------- ---------------- ---------- ---------- ---------- ---------- ---------- ----------
SWD4031445   SMH4028545   SMH4028546   15.438958   .039   0   0   0.00   0.00
SWD4031448   SMH4028548   SMH4028549   45.779301   .039   0   0   0.00   0.00
SWD4031451   SMH4028551   SMH4028552   23.92483   .039   0   0   0.00   0.00
SWD4031454   SMH4028554   SMH4028555   22.640313   .039   0   0   0.00   0.00
SWD4031520   SMH4028617   SMH4059901   9.977886   .039   0   0   0.00   0.00
SWD4031525   SMH4028622   SMH4028623   12.248035   .039   0   0   0.00   0.00
SWD4031534   SMH4028629   SMH4028630   17.500964   .039   0   0   0.00   0.00
SWD4031553   SMH4028648   SMH4028649   37.507739   .039   0   0   0.00   0.00
SWD4031573   SMH4028668   SWD40315731   61.657513   .039   0   0   0.00   0.00
SWD4031576   SMH4028671   SMH4028655   12.799709   .039   0   0   0.00   0.00
SWD4032058   SWD4032058   SMH4029113   9.279698   .039   0   0   0.00   0.00
SWD4032064   SMH4029119   SMH4029120   34.89067   .039   0   0   0.00   0.00